
  CDK     1213131428

 36 36  0  0  0  0  0  0  0  0999 V2000
    4.3837    9.5021    0.0000 H   0  0  0  0  0  0  0  0  0  0  0  0
    3.1702    8.6204    0.0000 C   0  0  0  0  0  0  0  0  0  0  0  0
    2.5126    9.9686    0.0000 H   0  0  0  0  0  0  0  0  0  0  0  0
    1.7283    8.2069    0.0000 H   0  0  0  0  0  0  0  0  0  0  0  0
    3.3270    7.1286    0.0000 C   0  0  0  0  0  0  0  0  0  0  0  0
    3.9845    5.7804    0.0000 H   0  0  0  0  0  0  0  0  0  0  0  0
    4.7689    7.5421    0.0000 H   0  0  0  0  0  0  0  0  0  0  0  0
    2.1135    6.2469    0.0000 C   0  0  0  0  0  0  0  0  0  0  0  0
    1.4559    7.5951    0.0000 H   0  0  0  0  0  0  0  0  0  0  0  0
    0.6716    5.8335    0.0000 H   0  0  0  0  0  0  0  0  0  0  0  0
    2.2703    4.7551    0.0000 O   0  0  0  0  0  0  0  0  0  0  0  0
    1.0567    3.8735    0.0000 C   0  0  0  0  0  0  0  0  0  0  0  0
   -0.3136    4.4836    0.0000 O   0  0  0  0  0  0  0  0  0  0  0  0
    1.2135    2.3817    0.0000 C   0  0  0  0  0  0  0  0  0  0  0  0
    2.5838    1.7716    0.0000 C   0  0  0  0  0  0  0  0  0  0  0  0
    3.7974    2.6533    0.0000 O   0  0  0  0  0  0  0  0  0  0  0  0
    2.7406    0.2798    0.0000 O   0  0  0  0  0  0  0  0  0  0  0  0
    4.1110   -0.3303    0.0000 C   0  0  0  0  0  0  0  0  0  0  0  0
    5.6073   -0.4349    0.0000 H   0  0  0  0  0  0  0  0  0  0  0  0
    4.4738    1.1251    0.0000 H   0  0  0  0  0  0  0  0  0  0  0  0
    4.2677   -1.8221    0.0000 C   0  0  0  0  0  0  0  0  0  0  0  0
    2.7714   -1.7175    0.0000 H   0  0  0  0  0  0  0  0  0  0  0  0
    3.9049   -3.2775    0.0000 H   0  0  0  0  0  0  0  0  0  0  0  0
    5.6381   -2.4322    0.0000 C   0  0  0  0  0  0  0  0  0  0  0  0
    5.7949   -3.9240    0.0000 H   0  0  0  0  0  0  0  0  0  0  0  0
    7.1344   -2.5368    0.0000 H   0  0  0  0  0  0  0  0  0  0  0  0
    6.0009   -0.9768    0.0000 H   0  0  0  0  0  0  0  0  0  0  0  0
    0.0000    1.5000    0.0000 C   0  0  0  0  0  0  0  0  0  0  0  0
    0.0000    0.0000    0.0000 S   0  0  0  0  0  0  0  0  0  0  0  0
   -1.4266   -0.4635    0.0000 C   0  0  0  0  0  0  0  0  0  0  0  0
   -2.7256   -1.2135    0.0000 H   0  0  0  0  0  0  0  0  0  0  0  0
   -0.8165   -1.8338    0.0000 H   0  0  0  0  0  0  0  0  0  0  0  0
   -2.3083    0.7500    0.0000 C   0  0  0  0  0  0  0  0  0  0  0  0
   -3.4230    1.7537    0.0000 H   0  0  0  0  0  0  0  0  0  0  0  0
   -3.4230   -0.2537    0.0000 H   0  0  0  0  0  0  0  0  0  0  0  0
   -1.4266    1.9635    0.0000 S   0  0  0  0  0  0  0  0  0  0  0  0
  2  1  1  0  0  0  0 
  3  2  1  0  0  0  0 
  4  2  1  0  0  0  0 
  5  2  1  0  0  0  0 
  6  5  1  0  0  0  0 
  7  5  1  0  0  0  0 
  8  5  1  0  0  0  0 
  9  8  1  0  0  0  0 
 10  8  1  0  0  0  0 
 11  8  1  0  0  0  0 
 12 11  1  0  0  0  0 
 13 12  2  0  0  0  0 
 14 12  1  0  0  0  0 
 15 14  1  0  0  0  0 
 16 15  2  0  0  0  0 
 17 15  1  0  0  0  0 
 18 17  1  0  0  0  0 
 19 18  1  0  0  0  0 
 20 18  1  0  0  0  0 
 21 18  1  0  0  0  0 
 22 21  1  0  0  0  0 
 23 21  1  0  0  0  0 
 24 21  1  0  0  0  0 
 25 24  1  0  0  0  0 
 26 24  1  0  0  0  0 
 27 24  1  0  0  0  0 
 28 14  2  0  0  0  0 
 29 28  1  0  0  0  0 
 30 29  1  0  0  0  0 
 31 30  1  0  0  0  0 
 32 30  1  0  0  0  0 
 33 30  1  0  0  0  0 
 34 33  1  0  0  0  0 
 35 33  1  0  0  0  0 
 36 33  1  0  0  0  0 
 36 28  1  0  0  0  0 
M  END
> <id>
93254

> <origin>
MetFrag

> <smiles>
[H]C([H])(OC(=O)C(C(=O)OC([H])([H])C([H])([H])C([H])([H])[H])=C1SC([H])([H])C([H])([H])S1)C([H])([H])C([H])([H])[H]

> <name>
dipropyl 2-(1,3-dithiolan-2-ylidene)propanedioate

> <peaksExplained>
2

> <tiedRank>
1

> <URL>
http://pubchem.ncbi.nlm.nih.gov/summary/summary.cgi?cid=93254

> <newscore>
0.7189575529002603

> <clusterRank>
1

> <origscore>
0.9077500000000001

$$$$

  CDK     1213131428

 36 36  0  0  0  0  0  0  0  0999 V2000
    1.2135    2.3817    0.0000 H   0  0  0  0  0  0  0  0  0  0  0  0
    0.0000    1.5000    0.0000 C   0  0  0  0  0  0  0  0  0  0  0  0
    0.0000    0.0000    0.0000 C   0  0  0  0  0  0  0  0  0  0  0  0
    1.2135   -0.8817    0.0000 H   0  0  0  0  0  0  0  0  0  0  0  0
   -1.4266   -0.4635    0.0000 C   0  0  0  0  0  0  0  0  0  0  0  0
   -1.8901   -1.8901    0.0000 C   0  0  0  0  0  0  0  0  0  0  0  0
   -1.8378   -3.3892    0.0000 H   0  0  0  0  0  0  0  0  0  0  0  0
   -0.4047   -2.0989    0.0000 H   0  0  0  0  0  0  0  0  0  0  0  0
   -3.3573   -2.2020    0.0000 C   0  0  0  0  0  0  0  0  0  0  0  0
   -3.8209   -3.6286    0.0000 H   0  0  0  0  0  0  0  0  0  0  0  0
   -3.4097   -0.7029    0.0000 H   0  0  0  0  0  0  0  0  0  0  0  0
   -4.8427   -1.9932    0.0000 H   0  0  0  0  0  0  0  0  0  0  0  0
   -2.3083    0.7500    0.0000 S   0  0  0  0  0  0  0  0  0  0  0  0
   -1.4266    1.9635    0.0000 C   0  0  0  0  0  0  0  0  0  0  0  0
   -1.8901    3.3901    0.0000 C   0  0  0  0  0  0  0  0  0  0  0  0
   -3.3573    3.7020    0.0000 O   0  0  0  0  0  0  0  0  0  0  0  0
   -0.8864    4.5048    0.0000 C   0  0  0  0  0  0  0  0  0  0  0  0
    0.0371    3.3228    0.0000 H   0  0  0  0  0  0  0  0  0  0  0  0
    0.4380    5.2090    0.0000 H   0  0  0  0  0  0  0  0  0  0  0  0
   -1.3499    5.9314    0.0000 S   0  0  0  0  0  0  0  0  0  0  0  0
   -2.2734    7.1134    0.0000 O   0  0  0  0  0  0  0  0  0  0  0  0
   -2.6744    5.2272    0.0000 O   0  0  0  0  0  0  0  0  0  0  0  0
   -0.3462    7.0461    0.0000 C   0  0  0  0  0  0  0  0  0  0  0  0
    0.5772    5.8641    0.0000 H   0  0  0  0  0  0  0  0  0  0  0  0
    0.9782    7.7503    0.0000 H   0  0  0  0  0  0  0  0  0  0  0  0
   -0.8098    8.4727    0.0000 C   0  0  0  0  0  0  0  0  0  0  0  0
   -1.7333    9.6547    0.0000 H   0  0  0  0  0  0  0  0  0  0  0  0
   -2.1342    7.7685    0.0000 H   0  0  0  0  0  0  0  0  0  0  0  0
    0.1939    9.5874    0.0000 C   0  0  0  0  0  0  0  0  0  0  0  0
    1.1174    8.4054    0.0000 H   0  0  0  0  0  0  0  0  0  0  0  0
    1.5183   10.2916    0.0000 H   0  0  0  0  0  0  0  0  0  0  0  0
   -0.2696   11.0140    0.0000 O   0  0  0  0  0  0  0  0  0  0  0  0
    0.7341   12.1287    0.0000 C   0  0  0  0  0  0  0  0  0  0  0  0
    0.2706   13.5553    0.0000 H   0  0  0  0  0  0  0  0  0  0  0  0
    1.6576   10.9467    0.0000 H   0  0  0  0  0  0  0  0  0  0  0  0
    2.0585   12.8329    0.0000 H   0  0  0  0  0  0  0  0  0  0  0  0
  2  1  1  0  0  0  0 
  3  2  1  0  0  0  0 
  4  3  1  0  0  0  0 
  5  3  2  0  0  0  0 
  6  5  1  0  0  0  0 
  7  6  1  0  0  0  0 
  8  6  1  0  0  0  0 
  9  6  1  0  0  0  0 
 10  9  1  0  0  0  0 
 11  9  1  0  0  0  0 
 12  9  1  0  0  0  0 
 13  5  1  0  0  0  0 
 14 13  1  0  0  0  0 
 14  2  2  0  0  0  0 
 15 14  1  0  0  0  0 
 16 15  2  0  0  0  0 
 17 15  1  0  0  0  0 
 18 17  1  0  0  0  0 
 19 17  1  0  0  0  0 
 20 17  1  0  0  0  0 
 21 20  2  0  0  0  0 
 22 20  2  0  0  0  0 
 23 20  1  0  0  0  0 
 24 23  1  0  0  0  0 
 25 23  1  0  0  0  0 
 26 23  1  0  0  0  0 
 27 26  1  0  0  0  0 
 28 26  1  0  0  0  0 
 29 26  1  0  0  0  0 
 30 29  1  0  0  0  0 
 31 29  1  0  0  0  0 
 32 29  1  0  0  0  0 
 33 32  1  0  0  0  0 
 34 33  1  0  0  0  0 
 35 33  1  0  0  0  0 
 36 33  1  0  0  0  0 
M  END
> <id>
64638109

> <origin>
MetFrag

> <smiles>
[H]c1c(C(=O)C([H])([H])S(=O)(=O)C([H])([H])C([H])([H])C([H])([H])OC([H])([H])[H])sc(c1([H]))C([H])([H])C([H])([H])[H]

> <name>
64638109

> <peaksExplained>
2

> <tiedRank>
2

> <URL>
http://pubchem.ncbi.nlm.nih.gov/summary/summary.cgi?cid=64638109

> <newscore>
0.7170527961071078

> <clusterRank>
2

> <origscore>
0.8374999999999999

$$$$

  CDK     1213131428

 36 37  0  0  0  0  0  0  0  0999 V2000
    2.2703    4.7551    0.0000 H   0  0  0  0  0  0  0  0  0  0  0  0
    1.0567    3.8735    0.0000 O   0  0  0  0  0  0  0  0  0  0  0  0
    1.2135    2.3817    0.0000 C   0  0  0  0  0  0  0  0  0  0  0  0
    1.8711    1.0335    0.0000 H   0  0  0  0  0  0  0  0  0  0  0  0
    2.6554    2.7951    0.0000 H   0  0  0  0  0  0  0  0  0  0  0  0
    0.0000    1.5000    0.0000 C   0  0  0  0  0  0  0  0  0  0  0  0
    0.0000    0.0000    0.0000 C   0  0  0  0  0  0  0  0  0  0  0  0
   -1.4266   -0.4635    0.0000 C   0  0  0  0  0  0  0  0  0  0  0  0
   -2.3083    0.7500    0.0000 C   0  0  0  0  0  0  0  0  0  0  0  0
   -1.4266    1.9635    0.0000 S   0  0  0  0  0  0  0  0  0  0  0  0
   -3.8083    0.7500    0.0000 S   0  0  0  0  0  0  0  0  0  0  0  0
   -5.2178    0.2370    0.0000 O   0  0  0  0  0  0  0  0  0  0  0  0
   -3.5478   -0.7272    0.0000 O   0  0  0  0  0  0  0  0  0  0  0  0
   -4.5583    2.0490    0.0000 C   0  0  0  0  0  0  0  0  0  0  0  0
   -6.0583    2.0490    0.0000 H   0  0  0  0  0  0  0  0  0  0  0  0
   -3.1487    2.5621    0.0000 H   0  0  0  0  0  0  0  0  0  0  0  0
   -4.8187    3.5262    0.0000 H   0  0  0  0  0  0  0  0  0  0  0  0
   -1.7385   -1.9307    0.0000 C   0  0  0  0  0  0  0  0  0  0  0  0
   -3.1292   -1.3688    0.0000 H   0  0  0  0  0  0  0  0  0  0  0  0
   -2.5333   -3.2028    0.0000 O   0  0  0  0  0  0  0  0  0  0  0  0
   -1.8291   -4.5272    0.0000 H   0  0  0  0  0  0  0  0  0  0  0  0
   -0.6237   -2.9344    0.0000 C   0  0  0  0  0  0  0  0  0  0  0  0
   -1.8058   -3.8579    0.0000 H   0  0  0  0  0  0  0  0  0  0  0  0
    0.0805   -4.2589    0.0000 H   0  0  0  0  0  0  0  0  0  0  0  0
    0.8028   -2.4709    0.0000 C   0  0  0  0  0  0  0  0  0  0  0  0
    1.0116   -3.9563    0.0000 C   0  0  0  0  0  0  0  0  0  0  0  0
    2.4024   -4.5182    0.0000 H   0  0  0  0  0  0  0  0  0  0  0  0
   -0.4875   -3.9040    0.0000 H   0  0  0  0  0  0  0  0  0  0  0  0
    0.6997   -5.4235    0.0000 H   0  0  0  0  0  0  0  0  0  0  0  0
    2.3019   -2.5233    0.0000 C   0  0  0  0  0  0  0  0  0  0  0  0
    3.0061   -3.8477    0.0000 H   0  0  0  0  0  0  0  0  0  0  0  0
    3.7285   -2.0597    0.0000 H   0  0  0  0  0  0  0  0  0  0  0  0
    2.0932   -1.0379    0.0000 H   0  0  0  0  0  0  0  0  0  0  0  0
    1.1147   -1.0037    0.0000 C   0  0  0  0  0  0  0  0  0  0  0  0
    2.5055   -1.5656    0.0000 H   0  0  0  0  0  0  0  0  0  0  0  0
    1.9096    0.2684    0.0000 H   0  0  0  0  0  0  0  0  0  0  0  0
  2  1  1  0  0  0  0 
  3  2  1  0  0  0  0 
  4  3  1  0  0  0  0 
  5  3  1  0  0  0  0 
  6  3  1  0  0  0  0 
  7  6  2  0  0  0  0 
  8  7  1  0  0  0  0 
  9  8  2  0  0  0  0 
 10  9  1  0  0  0  0 
 10  6  1  0  0  0  0 
 11  9  1  0  0  0  0 
 12 11  2  0  0  0  0 
 13 11  2  0  0  0  0 
 14 11  1  0  0  0  0 
 15 14  1  0  0  0  0 
 16 14  1  0  0  0  0 
 17 14  1  0  0  0  0 
 18  8  1  0  0  0  0 
 19 18  1  0  0  0  0 
 20 18  1  0  0  0  0 
 21 20  1  0  0  0  0 
 22 18  1  0  0  0  0 
 23 22  1  0  0  0  0 
 24 22  1  0  0  0  0 
 25 22  1  0  0  0  0 
 26 25  1  0  0  0  0 
 27 26  1  0  0  0  0 
 28 26  1  0  0  0  0 
 29 26  1  0  0  0  0 
 30 25  1  0  0  0  0 
 31 30  1  0  0  0  0 
 32 30  1  0  0  0  0 
 33 30  1  0  0  0  0 
 34 25  1  0  0  0  0 
 34  7  1  0  0  0  0 
 35 34  1  0  0  0  0 
 36 34  1  0  0  0  0 
M  END
> <id>
59840979

> <origin>
MetFrag

> <smiles>
[H]OC([H])([H])c1c2c(c(s1)S(=O)(=O)C([H])([H])[H])C([H])(O[H])C([H])([H])C(C([H])([H])[H])(C([H])([H])[H])C2([H])([H])

> <name>
59840979

> <peaksExplained>
3

> <tiedRank>
3

> <URL>
http://pubchem.ncbi.nlm.nih.gov/summary/summary.cgi?cid=59840979

> <newscore>
0.714554553481768

> <clusterRank>
3

> <origscore>
0.7975

$$$$

  CDK     1213131428

 36 36  0  0  0  0  0  0  0  0999 V2000
    3.1702    8.6204    0.0000 H   0  0  0  0  0  0  0  0  0  0  0  0
    3.3270    7.1286    0.0000 C   0  0  0  0  0  0  0  0  0  0  0  0
    3.9845    5.7804    0.0000 H   0  0  0  0  0  0  0  0  0  0  0  0
    4.7689    7.5421    0.0000 H   0  0  0  0  0  0  0  0  0  0  0  0
    2.1135    6.2469    0.0000 C   0  0  0  0  0  0  0  0  0  0  0  0
    1.4559    7.5951    0.0000 H   0  0  0  0  0  0  0  0  0  0  0  0
    2.2703    4.7551    0.0000 O   0  0  0  0  0  0  0  0  0  0  0  0
    1.0567    3.8735    0.0000 C   0  0  0  0  0  0  0  0  0  0  0  0
   -0.3136    4.4836    0.0000 O   0  0  0  0  0  0  0  0  0  0  0  0
    1.2135    2.3817    0.0000 C   0  0  0  0  0  0  0  0  0  0  0  0
    2.5838    1.7716    0.0000 C   0  0  0  0  0  0  0  0  0  0  0  0
    3.7974    2.6533    0.0000 O   0  0  0  0  0  0  0  0  0  0  0  0
    2.7406    0.2798    0.0000 O   0  0  0  0  0  0  0  0  0  0  0  0
    4.1110   -0.3303    0.0000 C   0  0  0  0  0  0  0  0  0  0  0  0
    5.6073   -0.4349    0.0000 H   0  0  0  0  0  0  0  0  0  0  0  0
    4.2677   -1.8221    0.0000 C   0  0  0  0  0  0  0  0  0  0  0  0
    5.6381   -2.4322    0.0000 H   0  0  0  0  0  0  0  0  0  0  0  0
    2.7714   -1.7175    0.0000 H   0  0  0  0  0  0  0  0  0  0  0  0
    3.9049   -3.2775    0.0000 H   0  0  0  0  0  0  0  0  0  0  0  0
    4.4738    1.1251    0.0000 C   0  0  0  0  0  0  0  0  0  0  0  0
    5.9157    1.5386    0.0000 H   0  0  0  0  0  0  0  0  0  0  0  0
    4.3170    2.6169    0.0000 H   0  0  0  0  0  0  0  0  0  0  0  0
    2.9775    1.2298    0.0000 H   0  0  0  0  0  0  0  0  0  0  0  0
    0.0000    1.5000    0.0000 C   0  0  0  0  0  0  0  0  0  0  0  0
    0.0000    0.0000    0.0000 S   0  0  0  0  0  0  0  0  0  0  0  0
   -1.4266   -0.4635    0.0000 C   0  0  0  0  0  0  0  0  0  0  0  0
   -2.7256   -1.2135    0.0000 H   0  0  0  0  0  0  0  0  0  0  0  0
   -0.8165   -1.8338    0.0000 H   0  0  0  0  0  0  0  0  0  0  0  0
   -2.3083    0.7500    0.0000 C   0  0  0  0  0  0  0  0  0  0  0  0
   -3.4230    1.7537    0.0000 H   0  0  0  0  0  0  0  0  0  0  0  0
   -3.4230   -0.2537    0.0000 H   0  0  0  0  0  0  0  0  0  0  0  0
   -1.4266    1.9635    0.0000 S   0  0  0  0  0  0  0  0  0  0  0  0
    0.6716    5.8335    0.0000 C   0  0  0  0  0  0  0  0  0  0  0  0
   -0.4074    6.8755    0.0000 H   0  0  0  0  0  0  0  0  0  0  0  0
   -0.5420    4.9518    0.0000 H   0  0  0  0  0  0  0  0  0  0  0  0
    1.3291    4.4853    0.0000 H   0  0  0  0  0  0  0  0  0  0  0  0
  2  1  1  0  0  0  0 
  3  2  1  0  0  0  0 
  4  2  1  0  0  0  0 
  5  2  1  0  0  0  0 
  6  5  1  0  0  0  0 
  7  5  1  0  0  0  0 
  8  7  1  0  0  0  0 
  9  8  2  0  0  0  0 
 10  8  1  0  0  0  0 
 11 10  1  0  0  0  0 
 12 11  2  0  0  0  0 
 13 11  1  0  0  0  0 
 14 13  1  0  0  0  0 
 15 14  1  0  0  0  0 
 16 14  1  0  0  0  0 
 17 16  1  0  0  0  0 
 18 16  1  0  0  0  0 
 19 16  1  0  0  0  0 
 20 14  1  0  0  0  0 
 21 20  1  0  0  0  0 
 22 20  1  0  0  0  0 
 23 20  1  0  0  0  0 
 24 10  2  0  0  0  0 
 25 24  1  0  0  0  0 
 26 25  1  0  0  0  0 
 27 26  1  0  0  0  0 
 28 26  1  0  0  0  0 
 29 26  1  0  0  0  0 
 30 29  1  0  0  0  0 
 31 29  1  0  0  0  0 
 32 29  1  0  0  0  0 
 32 24  1  0  0  0  0 
 33  5  1  0  0  0  0 
 34 33  1  0  0  0  0 
 35 33  1  0  0  0  0 
 36 33  1  0  0  0  0 
M  END
> <id>
39681

> <origin>
MetFrag

> <smiles>
[H]C1([H])(C([H])([H])SC(=C(C(=O)OC([H])(C([H])([H])[H])C([H])([H])[H])C(=O)OC([H])(C([H])([H])[H])C([H])([H])[H])S1)

> <name>
dipropan-2-yl 2-(1,3-dithiolan-2-ylidene)propanedioate

> <peaksExplained>
2

> <tiedRank>
4

> <URL>
http://pubchem.ncbi.nlm.nih.gov/summary/summary.cgi?cid=39681

> <newscore>
0.7143983033510015

> <clusterRank>
4

> <origscore>
0.9077500000000001

$$$$

  CDK     1213131428

 36 37  0  0  0  0  0  0  0  0999 V2000
    9.7654    8.3108    0.0000 H   0  0  0  0  0  0  0  0  0  0  0  0
    8.8837    7.0972    0.0000 O   0  0  0  0  0  0  0  0  0  0  0  0
    7.3920    7.2540    0.0000 C   0  0  0  0  0  0  0  0  0  0  0  0
    7.8054    8.6959    0.0000 H   0  0  0  0  0  0  0  0  0  0  0  0
    6.0438    7.9116    0.0000 H   0  0  0  0  0  0  0  0  0  0  0  0
    6.5103    6.0405    0.0000 C   0  0  0  0  0  0  0  0  0  0  0  0
    7.1204    4.6702    0.0000 C   0  0  0  0  0  0  0  0  0  0  0  0
    8.6122    4.5134    0.0000 H   0  0  0  0  0  0  0  0  0  0  0  0
    6.2387    3.4567    0.0000 C   0  0  0  0  0  0  0  0  0  0  0  0
    6.8488    2.0864    0.0000 H   0  0  0  0  0  0  0  0  0  0  0  0
    4.7469    3.6135    0.0000 C   0  0  0  0  0  0  0  0  0  0  0  0
    3.8652    2.3999    0.0000 C   0  0  0  0  0  0  0  0  0  0  0  0
    3.4518    0.9580    0.0000 H   0  0  0  0  0  0  0  0  0  0  0  0
    5.2134    1.7424    0.0000 H   0  0  0  0  0  0  0  0  0  0  0  0
    2.3735    2.5567    0.0000 O   0  0  0  0  0  0  0  0  0  0  0  0
    1.4918    1.3432    0.0000 C   0  0  0  0  0  0  0  0  0  0  0  0
    1.0783   -0.0987    0.0000 H   0  0  0  0  0  0  0  0  0  0  0  0
    2.8400    0.6857    0.0000 H   0  0  0  0  0  0  0  0  0  0  0  0
    0.0000    1.5000    0.0000 C   0  0  0  0  0  0  0  0  0  0  0  0
    0.3119    2.9672    0.0000 H   0  0  0  0  0  0  0  0  0  0  0  0
    0.0000    0.0000    0.0000 O   0  0  0  0  0  0  0  0  0  0  0  0
   -1.4266   -0.4635    0.0000 C   0  0  0  0  0  0  0  0  0  0  0  0
   -2.3083    0.7500    0.0000 O   0  0  0  0  0  0  0  0  0  0  0  0
   -1.4266    1.9635    0.0000 C   0  0  0  0  0  0  0  0  0  0  0  0
   -0.8165    3.3338    0.0000 H   0  0  0  0  0  0  0  0  0  0  0  0
   -2.7256    2.7135    0.0000 H   0  0  0  0  0  0  0  0  0  0  0  0
   -2.7256   -1.2135    0.0000 C   0  0  0  0  0  0  0  0  0  0  0  0
   -2.7256   -2.7135    0.0000 H   0  0  0  0  0  0  0  0  0  0  0  0
   -3.2387    0.1960    0.0000 H   0  0  0  0  0  0  0  0  0  0  0  0
   -4.2028   -1.4740    0.0000 H   0  0  0  0  0  0  0  0  0  0  0  0
   -0.8165   -1.8338    0.0000 C   0  0  0  0  0  0  0  0  0  0  0  0
   -1.6982   -3.0474    0.0000 H   0  0  0  0  0  0  0  0  0  0  0  0
    0.2255   -2.9129    0.0000 H   0  0  0  0  0  0  0  0  0  0  0  0
    0.4271   -0.9951    0.0000 H   0  0  0  0  0  0  0  0  0  0  0  0
    4.1368    4.9838    0.0000 S   0  0  0  0  0  0  0  0  0  0  0  0
    5.0185    6.1973    0.0000 S   0  0  0  0  0  0  0  0  0  0  0  0
  2  1  1  0  0  0  0 
  3  2  1  0  0  0  0 
  4  3  1  0  0  0  0 
  5  3  1  0  0  0  0 
  6  3  1  0  0  0  0 
  7  6  2  0  0  0  0 
  8  7  1  0  0  0  0 
  9  7  1  0  0  0  0 
 10  9  1  0  0  0  0 
 11  9  2  0  0  0  0 
 12 11  1  0  0  0  0 
 13 12  1  0  0  0  0 
 14 12  1  0  0  0  0 
 15 12  1  0  0  0  0 
 16 15  1  0  0  0  0 
 17 16  1  0  0  0  0 
 18 16  1  0  0  0  0 
 19 16  1  0  0  0  0 
 20 19  1  0  0  0  0 
 21 19  1  0  0  0  0 
 22 21  1  0  0  0  0 
 23 22  1  0  0  0  0 
 24 23  1  0  0  0  0 
 24 19  1  0  0  0  0 
 25 24  1  0  0  0  0 
 26 24  1  0  0  0  0 
 27 22  1  0  0  0  0 
 28 27  1  0  0  0  0 
 29 27  1  0  0  0  0 
 30 27  1  0  0  0  0 
 31 22  1  0  0  0  0 
 32 31  1  0  0  0  0 
 33 31  1  0  0  0  0 
 34 31  1  0  0  0  0 
 35 11  1  0  0  0  0 
 36 35  1  0  0  0  0 
 36  6  1  0  0  0  0 
M  END
> <id>
462644

> <origin>
MetFrag

> <smiles>
[H]OC([H])([H])C2=C([H])C([H])=C(C([H])([H])OC([H])([H])C1([H])(OC(OC1([H])([H]))(C([H])([H])[H])C([H])([H])[H]))SS2

> <name>
[6-[(2,2-dimethyl-1,3-dioxolan-4-yl)methoxymethyl]dithiin-3-yl]methanol

> <peaksExplained>
3

> <tiedRank>
5

> <URL>
http://pubchem.ncbi.nlm.nih.gov/summary/summary.cgi?cid=462644

> <newscore>
0.707696410592787

> <clusterRank>
5

> <origscore>
0.815

$$$$

  CDK     1213131428

 36 37  0  0  0  0  0  0  0  0999 V2000
   -0.0102    8.3554    0.0000 H   0  0  0  0  0  0  0  0  0  0  0  0
   -0.7144    7.0309    0.0000 O   0  0  0  0  0  0  0  0  0  0  0  0
    0.0805    5.7589    0.0000 C   0  0  0  0  0  0  0  0  0  0  0  0
    1.2625    4.8354    0.0000 H   0  0  0  0  0  0  0  0  0  0  0  0
    1.1952    6.7626    0.0000 H   0  0  0  0  0  0  0  0  0  0  0  0
   -0.6237    4.4344    0.0000 C   0  0  0  0  0  0  0  0  0  0  0  0
   -1.8058    5.3579    0.0000 H   0  0  0  0  0  0  0  0  0  0  0  0
    0.8028    3.9709    0.0000 C   0  0  0  0  0  0  0  0  0  0  0  0
    2.3019    4.0233    0.0000 H   0  0  0  0  0  0  0  0  0  0  0  0
    1.0116    5.4563    0.0000 H   0  0  0  0  0  0  0  0  0  0  0  0
    1.1147    2.5037    0.0000 C   0  0  0  0  0  0  0  0  0  0  0  0
    1.9096    1.2316    0.0000 H   0  0  0  0  0  0  0  0  0  0  0  0
    2.5055    3.0656    0.0000 O   0  0  0  0  0  0  0  0  0  0  0  0
    3.6875    2.1421    0.0000 C   0  0  0  0  0  0  0  0  0  0  0  0
    2.5728    1.1384    0.0000 H   0  0  0  0  0  0  0  0  0  0  0  0
    4.4824    0.8700    0.0000 H   0  0  0  0  0  0  0  0  0  0  0  0
    5.0783    2.7040    0.0000 O   0  0  0  0  0  0  0  0  0  0  0  0
    6.2603    1.7805    0.0000 C   0  0  0  0  0  0  0  0  0  0  0  0
    5.1456    0.7768    0.0000 H   0  0  0  0  0  0  0  0  0  0  0  0
    7.6511    2.3424    0.0000 O   0  0  0  0  0  0  0  0  0  0  0  0
    8.8331    1.4189    0.0000 C   0  0  0  0  0  0  0  0  0  0  0  0
   10.2239    1.9809    0.0000 H   0  0  0  0  0  0  0  0  0  0  0  0
    7.7184    0.4153    0.0000 H   0  0  0  0  0  0  0  0  0  0  0  0
    9.6280    0.1469    0.0000 H   0  0  0  0  0  0  0  0  0  0  0  0
    7.0552    0.5085    0.0000 C   0  0  0  0  0  0  0  0  0  0  0  0
    8.5543    0.5608    0.0000 H   0  0  0  0  0  0  0  0  0  0  0  0
    5.6644   -0.0535    0.0000 H   0  0  0  0  0  0  0  0  0  0  0  0
    7.3670   -0.9588    0.0000 H   0  0  0  0  0  0  0  0  0  0  0  0
    0.0000    1.5000    0.0000 C   0  0  0  0  0  0  0  0  0  0  0  0
    0.0000    0.0000    0.0000 C   0  0  0  0  0  0  0  0  0  0  0  0
    1.2135   -0.8817    0.0000 H   0  0  0  0  0  0  0  0  0  0  0  0
   -1.4266   -0.4635    0.0000 C   0  0  0  0  0  0  0  0  0  0  0  0
   -1.8901   -1.8901    0.0000 H   0  0  0  0  0  0  0  0  0  0  0  0
   -2.3083    0.7500    0.0000 S   0  0  0  0  0  0  0  0  0  0  0  0
   -1.4266    1.9635    0.0000 C   0  0  0  0  0  0  0  0  0  0  0  0
   -1.7385    3.4307    0.0000 S   0  0  0  0  0  0  0  0  0  0  0  0
  2  1  1  0  0  0  0 
  3  2  1  0  0  0  0 
  4  3  1  0  0  0  0 
  5  3  1  0  0  0  0 
  6  3  1  0  0  0  0 
  7  6  1  0  0  0  0 
  8  6  1  0  0  0  0 
  9  8  1  0  0  0  0 
 10  8  1  0  0  0  0 
 11  8  1  0  0  0  0 
 12 11  1  0  0  0  0 
 13 11  1  0  0  0  0 
 14 13  1  0  0  0  0 
 15 14  1  0  0  0  0 
 16 14  1  0  0  0  0 
 17 14  1  0  0  0  0 
 18 17  1  0  0  0  0 
 19 18  1  0  0  0  0 
 20 18  1  0  0  0  0 
 21 20  1  0  0  0  0 
 22 21  1  0  0  0  0 
 23 21  1  0  0  0  0 
 24 21  1  0  0  0  0 
 25 18  1  0  0  0  0 
 26 25  1  0  0  0  0 
 27 25  1  0  0  0  0 
 28 25  1  0  0  0  0 
 29 11  1  0  0  0  0 
 30 29  1  0  0  0  0 
 31 30  1  0  0  0  0 
 32 30  2  0  0  0  0 
 33 32  1  0  0  0  0 
 34 32  1  0  0  0  0 
 35 34  1  0  0  0  0 
 35 29  2  0  0  0  0 
 36 35  1  0  0  0  0 
 36  6  1  0  0  0  0 
M  END
> <id>
19010440

> <origin>
MetFrag

> <smiles>
[H]OC([H])([H])C2([H])(C([H])([H])C([H])(OC([H])([H])OC([H])(OC([H])([H])[H])C([H])([H])[H])c1c(sc([H])c1([H]))S2)

> <name>
[4-(1-methoxyethoxymethoxy)-5,6-dihydro-4H-thieno[2,3-b]thiopyran-6-yl]methanol

> <peaksExplained>
1

> <tiedRank>
6

> <URL>
http://pubchem.ncbi.nlm.nih.gov/summary/summary.cgi?cid=19010440

> <newscore>
0.6973503813677052

> <clusterRank>
6

> <origscore>
0.70825

$$$$

  CDK     1213131428

 36 36  0  0  0  0  0  0  0  0999 V2000
    1.2135    2.3817    0.0000 H   0  0  0  0  0  0  0  0  0  0  0  0
    0.0000    1.5000    0.0000 C   0  0  0  0  0  0  0  0  0  0  0  0
    0.0000    0.0000    0.0000 C   0  0  0  0  0  0  0  0  0  0  0  0
    1.2135   -0.8817    0.0000 H   0  0  0  0  0  0  0  0  0  0  0  0
   -1.4266   -0.4635    0.0000 C   0  0  0  0  0  0  0  0  0  0  0  0
   -1.8901   -1.8901    0.0000 C   0  0  0  0  0  0  0  0  0  0  0  0
   -0.8864   -3.0048    0.0000 O   0  0  0  0  0  0  0  0  0  0  0  0
   -3.3573   -2.2020    0.0000 C   0  0  0  0  0  0  0  0  0  0  0  0
   -3.4097   -0.7029    0.0000 H   0  0  0  0  0  0  0  0  0  0  0  0
   -4.8427   -1.9932    0.0000 H   0  0  0  0  0  0  0  0  0  0  0  0
   -3.8209   -3.6286    0.0000 C   0  0  0  0  0  0  0  0  0  0  0  0
   -3.7685   -5.1276    0.0000 H   0  0  0  0  0  0  0  0  0  0  0  0
   -2.3355   -3.8373    0.0000 H   0  0  0  0  0  0  0  0  0  0  0  0
   -5.2881   -3.9404    0.0000 C   0  0  0  0  0  0  0  0  0  0  0  0
   -5.3404   -2.4413    0.0000 H   0  0  0  0  0  0  0  0  0  0  0  0
   -6.7735   -3.7317    0.0000 H   0  0  0  0  0  0  0  0  0  0  0  0
   -5.7516   -5.3670    0.0000 S   0  0  0  0  0  0  0  0  0  0  0  0
   -5.6993   -6.8661    0.0000 O   0  0  0  0  0  0  0  0  0  0  0  0
   -4.2662   -5.5758    0.0000 O   0  0  0  0  0  0  0  0  0  0  0  0
   -7.2188   -5.6789    0.0000 C   0  0  0  0  0  0  0  0  0  0  0  0
   -7.2712   -4.1798    0.0000 H   0  0  0  0  0  0  0  0  0  0  0  0
   -8.7042   -5.4701    0.0000 H   0  0  0  0  0  0  0  0  0  0  0  0
   -7.6824   -7.1055    0.0000 C   0  0  0  0  0  0  0  0  0  0  0  0
   -7.6300   -8.6046    0.0000 H   0  0  0  0  0  0  0  0  0  0  0  0
   -6.1969   -7.3142    0.0000 H   0  0  0  0  0  0  0  0  0  0  0  0
   -9.1496   -7.4173    0.0000 C   0  0  0  0  0  0  0  0  0  0  0  0
   -9.2019   -5.9182    0.0000 H   0  0  0  0  0  0  0  0  0  0  0  0
  -10.6350   -7.2086    0.0000 H   0  0  0  0  0  0  0  0  0  0  0  0
   -9.6131   -8.8439    0.0000 O   0  0  0  0  0  0  0  0  0  0  0  0
  -11.0803   -9.1558    0.0000 C   0  0  0  0  0  0  0  0  0  0  0  0
  -11.5438  -10.5824    0.0000 H   0  0  0  0  0  0  0  0  0  0  0  0
  -11.1327   -7.6567    0.0000 H   0  0  0  0  0  0  0  0  0  0  0  0
  -12.5657   -8.9470    0.0000 H   0  0  0  0  0  0  0  0  0  0  0  0
   -2.3083    0.7500    0.0000 S   0  0  0  0  0  0  0  0  0  0  0  0
   -1.4266    1.9635    0.0000 C   0  0  0  0  0  0  0  0  0  0  0  0
   -1.8901    3.3901    0.0000 H   0  0  0  0  0  0  0  0  0  0  0  0
  2  1  1  0  0  0  0 
  3  2  1  0  0  0  0 
  4  3  1  0  0  0  0 
  5  3  2  0  0  0  0 
  6  5  1  0  0  0  0 
  7  6  2  0  0  0  0 
  8  6  1  0  0  0  0 
  9  8  1  0  0  0  0 
 10  8  1  0  0  0  0 
 11  8  1  0  0  0  0 
 12 11  1  0  0  0  0 
 13 11  1  0  0  0  0 
 14 11  1  0  0  0  0 
 15 14  1  0  0  0  0 
 16 14  1  0  0  0  0 
 17 14  1  0  0  0  0 
 18 17  2  0  0  0  0 
 19 17  2  0  0  0  0 
 20 17  1  0  0  0  0 
 21 20  1  0  0  0  0 
 22 20  1  0  0  0  0 
 23 20  1  0  0  0  0 
 24 23  1  0  0  0  0 
 25 23  1  0  0  0  0 
 26 23  1  0  0  0  0 
 27 26  1  0  0  0  0 
 28 26  1  0  0  0  0 
 29 26  1  0  0  0  0 
 30 29  1  0  0  0  0 
 31 30  1  0  0  0  0 
 32 30  1  0  0  0  0 
 33 30  1  0  0  0  0 
 34  5  1  0  0  0  0 
 35 34  1  0  0  0  0 
 35  2  2  0  0  0  0 
 36 35  1  0  0  0  0 
M  END
> <id>
64635636

> <origin>
MetFrag

> <smiles>
[H]c1c(C(=O)C([H])([H])C([H])([H])C([H])([H])S(=O)(=O)C([H])([H])C([H])([H])C([H])([H])OC([H])([H])[H])sc([H])c1([H])

> <name>
64635636

> <peaksExplained>
1

> <tiedRank>
7

> <URL>
http://pubchem.ncbi.nlm.nih.gov/summary/summary.cgi?cid=64635636

> <newscore>
0.6863419188041302

> <clusterRank>
7

> <origscore>
0.71125

$$$$

  CDK     1213131428

 36 36  0  0  0  0  0  0  0  0999 V2000
    1.2135    2.3817    0.0000 H   0  0  0  0  0  0  0  0  0  0  0  0
    0.0000    1.5000    0.0000 C   0  0  0  0  0  0  0  0  0  0  0  0
    0.0000    0.0000    0.0000 C   0  0  0  0  0  0  0  0  0  0  0  0
    1.2135   -0.8817    0.0000 C   0  0  0  0  0  0  0  0  0  0  0  0
    2.5838   -0.2716    0.0000 O   0  0  0  0  0  0  0  0  0  0  0  0
    1.0567   -2.3735    0.0000 C   0  0  0  0  0  0  0  0  0  0  0  0
   -0.3747   -1.8857    0.0000 H   0  0  0  0  0  0  0  0  0  0  0  0
    0.3992   -3.7217    0.0000 H   0  0  0  0  0  0  0  0  0  0  0  0
    2.2703   -3.2551    0.0000 S   0  0  0  0  0  0  0  0  0  0  0  0
    3.7122   -3.6686    0.0000 O   0  0  0  0  0  0  0  0  0  0  0  0
    2.9278   -1.9069    0.0000 O   0  0  0  0  0  0  0  0  0  0  0  0
    2.1135   -4.7469    0.0000 C   0  0  0  0  0  0  0  0  0  0  0  0
    0.6716   -4.3335    0.0000 H   0  0  0  0  0  0  0  0  0  0  0  0
    1.4559   -6.0951    0.0000 H   0  0  0  0  0  0  0  0  0  0  0  0
    3.3270   -5.6286    0.0000 C   0  0  0  0  0  0  0  0  0  0  0  0
    4.7689   -6.0421    0.0000 H   0  0  0  0  0  0  0  0  0  0  0  0
    3.9845   -4.2804    0.0000 H   0  0  0  0  0  0  0  0  0  0  0  0
    3.1702   -7.1204    0.0000 C   0  0  0  0  0  0  0  0  0  0  0  0
    1.7283   -6.7069    0.0000 H   0  0  0  0  0  0  0  0  0  0  0  0
    2.5126   -8.4686    0.0000 H   0  0  0  0  0  0  0  0  0  0  0  0
    4.3837   -8.0021    0.0000 O   0  0  0  0  0  0  0  0  0  0  0  0
    4.2269   -9.4938    0.0000 C   0  0  0  0  0  0  0  0  0  0  0  0
    5.4405  -10.3755    0.0000 H   0  0  0  0  0  0  0  0  0  0  0  0
    2.7850   -9.0804    0.0000 H   0  0  0  0  0  0  0  0  0  0  0  0
    3.5694  -10.8420    0.0000 H   0  0  0  0  0  0  0  0  0  0  0  0
   -1.4266   -0.4635    0.0000 C   0  0  0  0  0  0  0  0  0  0  0  0
   -1.8901   -1.8901    0.0000 C   0  0  0  0  0  0  0  0  0  0  0  0
   -3.3573   -2.2020    0.0000 H   0  0  0  0  0  0  0  0  0  0  0  0
   -1.8378   -3.3892    0.0000 H   0  0  0  0  0  0  0  0  0  0  0  0
   -0.4047   -2.0989    0.0000 H   0  0  0  0  0  0  0  0  0  0  0  0
   -2.3083    0.7500    0.0000 S   0  0  0  0  0  0  0  0  0  0  0  0
   -1.4266    1.9635    0.0000 C   0  0  0  0  0  0  0  0  0  0  0  0
   -1.8901    3.3901    0.0000 C   0  0  0  0  0  0  0  0  0  0  0  0
   -3.3573    3.7020    0.0000 H   0  0  0  0  0  0  0  0  0  0  0  0
   -0.4047    3.5989    0.0000 H   0  0  0  0  0  0  0  0  0  0  0  0
   -1.8378    4.8892    0.0000 H   0  0  0  0  0  0  0  0  0  0  0  0
  2  1  1  0  0  0  0 
  3  2  1  0  0  0  0 
  4  3  1  0  0  0  0 
  5  4  2  0  0  0  0 
  6  4  1  0  0  0  0 
  7  6  1  0  0  0  0 
  8  6  1  0  0  0  0 
  9  6  1  0  0  0  0 
 10  9  2  0  0  0  0 
 11  9  2  0  0  0  0 
 12  9  1  0  0  0  0 
 13 12  1  0  0  0  0 
 14 12  1  0  0  0  0 
 15 12  1  0  0  0  0 
 16 15  1  0  0  0  0 
 17 15  1  0  0  0  0 
 18 15  1  0  0  0  0 
 19 18  1  0  0  0  0 
 20 18  1  0  0  0  0 
 21 18  1  0  0  0  0 
 22 21  1  0  0  0  0 
 23 22  1  0  0  0  0 
 24 22  1  0  0  0  0 
 25 22  1  0  0  0  0 
 26  3  2  0  0  0  0 
 27 26  1  0  0  0  0 
 28 27  1  0  0  0  0 
 29 27  1  0  0  0  0 
 30 27  1  0  0  0  0 
 31 26  1  0  0  0  0 
 32 31  1  0  0  0  0 
 32  2  2  0  0  0  0 
 33 32  1  0  0  0  0 
 34 33  1  0  0  0  0 
 35 33  1  0  0  0  0 
 36 33  1  0  0  0  0 
M  END
> <id>
64636770

> <origin>
MetFrag

> <smiles>
[H]c1c(C(=O)C([H])([H])S(=O)(=O)C([H])([H])C([H])([H])C([H])([H])OC([H])([H])[H])c(C([H])([H])[H])sc1C([H])([H])[H]

> <name>
64636770

> <peaksExplained>
1

> <tiedRank>
8

> <URL>
http://pubchem.ncbi.nlm.nih.gov/summary/summary.cgi?cid=64636770

> <newscore>
0.6811964816615794

> <clusterRank>
8

> <origscore>
0.71125

$$$$

  CDK     1213131428

 36 36  0  0  0  0  0  0  0  0999 V2000
    4.5883    2.8300    0.0000 H   0  0  0  0  0  0  0  0  0  0  0  0
    3.1111    3.0905    0.0000 O   0  0  0  0  0  0  0  0  0  0  0  0
    2.5981    4.5000    0.0000 C   0  0  0  0  0  0  0  0  0  0  0  0
    4.0753    4.7605    0.0000 H   0  0  0  0  0  0  0  0  0  0  0  0
    2.5981    6.0000    0.0000 C   0  0  0  0  0  0  0  0  0  0  0  0
    2.0850    7.4095    0.0000 H   0  0  0  0  0  0  0  0  0  0  0  0
    1.1209    5.7395    0.0000 H   0  0  0  0  0  0  0  0  0  0  0  0
    3.8971    6.7500    0.0000 O   0  0  0  0  0  0  0  0  0  0  0  0
    3.8971    8.2500    0.0000 C   0  0  0  0  0  0  0  0  0  0  0  0
    3.3841    9.6595    0.0000 H   0  0  0  0  0  0  0  0  0  0  0  0
    2.4199    7.9895    0.0000 H   0  0  0  0  0  0  0  0  0  0  0  0
    5.1962    9.0000    0.0000 C   0  0  0  0  0  0  0  0  0  0  0  0
    5.1962   10.5000    0.0000 H   0  0  0  0  0  0  0  0  0  0  0  0
    5.7092    7.5905    0.0000 H   0  0  0  0  0  0  0  0  0  0  0  0
    6.6734    9.2605    0.0000 H   0  0  0  0  0  0  0  0  0  0  0  0
    1.2990    3.7500    0.0000 C   0  0  0  0  0  0  0  0  0  0  0  0
    0.7860    5.1595    0.0000 H   0  0  0  0  0  0  0  0  0  0  0  0
   -0.1782    3.4895    0.0000 H   0  0  0  0  0  0  0  0  0  0  0  0
    1.2990    2.2500    0.0000 S   0  0  0  0  0  0  0  0  0  0  0  0
    0.0000    1.5000    0.0000 C   0  0  0  0  0  0  0  0  0  0  0  0
    0.0000    0.0000    0.0000 C   0  0  0  0  0  0  0  0  0  0  0  0
    1.2990   -0.7500    0.0000 H   0  0  0  0  0  0  0  0  0  0  0  0
   -1.2990   -0.7500    0.0000 C   0  0  0  0  0  0  0  0  0  0  0  0
   -1.2990   -2.2500    0.0000 H   0  0  0  0  0  0  0  0  0  0  0  0
   -2.5981   -0.0000    0.0000 C   0  0  0  0  0  0  0  0  0  0  0  0
   -2.5981    1.5000    0.0000 C   0  0  0  0  0  0  0  0  0  0  0  0
   -3.8971    2.2500    0.0000 H   0  0  0  0  0  0  0  0  0  0  0  0
   -1.2990    2.2500    0.0000 C   0  0  0  0  0  0  0  0  0  0  0  0
   -1.2990    3.7500    0.0000 H   0  0  0  0  0  0  0  0  0  0  0  0
   -3.8971   -0.7500    0.0000 S   0  0  0  0  0  0  0  0  0  0  0  0
   -4.4101    0.6595    0.0000 O   0  0  0  0  0  0  0  0  0  0  0  0
   -5.3743   -1.0105    0.0000 O   0  0  0  0  0  0  0  0  0  0  0  0
   -3.8971   -2.2500    0.0000 C   0  0  0  0  0  0  0  0  0  0  0  0
   -5.1962   -3.0000    0.0000 H   0  0  0  0  0  0  0  0  0  0  0  0
   -3.3841   -3.6595    0.0000 H   0  0  0  0  0  0  0  0  0  0  0  0
   -2.4199   -1.9895    0.0000 H   0  0  0  0  0  0  0  0  0  0  0  0
  2  1  1  0  0  0  0 
  3  2  1  0  0  0  0 
  4  3  1  0  0  0  0 
  5  3  1  0  0  0  0 
  6  5  1  0  0  0  0 
  7  5  1  0  0  0  0 
  8  5  1  0  0  0  0 
  9  8  1  0  0  0  0 
 10  9  1  0  0  0  0 
 11  9  1  0  0  0  0 
 12  9  1  0  0  0  0 
 13 12  1  0  0  0  0 
 14 12  1  0  0  0  0 
 15 12  1  0  0  0  0 
 16  3  1  0  0  0  0 
 17 16  1  0  0  0  0 
 18 16  1  0  0  0  0 
 19 16  1  0  0  0  0 
 20 19  1  0  0  0  0 
 21 20  2  0  0  0  0 
 22 21  1  0  0  0  0 
 23 21  1  0  0  0  0 
 24 23  1  0  0  0  0 
 25 23  2  0  0  0  0 
 26 25  1  0  0  0  0 
 27 26  1  0  0  0  0 
 28 26  2  0  0  0  0 
 28 20  1  0  0  0  0 
 29 28  1  0  0  0  0 
 30 25  1  0  0  0  0 
 31 30  2  0  0  0  0 
 32 30  2  0  0  0  0 
 33 30  1  0  0  0  0 
 34 33  1  0  0  0  0 
 35 33  1  0  0  0  0 
 36 33  1  0  0  0  0 
M  END
> <id>
63934274

> <origin>
MetFrag

> <smiles>
[H]OC([H])(C([H])([H])OC([H])([H])C([H])([H])[H])C([H])([H])Sc1c([H])c([H])c(c([H])c1([H]))S(=O)(=O)C([H])([H])[H]

> <name>
63934274

> <peaksExplained>
1

> <tiedRank>
9

> <URL>
http://pubchem.ncbi.nlm.nih.gov/summary/summary.cgi?cid=63934274

> <newscore>
0.674956563267454

> <clusterRank>
9

> <origscore>
0.71125

$$$$

  CDK     1213131428

 33 36  0  0  0  0  0  0  0  0999 V2000
    5.1800    2.1918    0.0000 H   0  0  0  0  0  0  0  0  0  0  0  0
    3.7128    2.5037    0.0000 C   0  0  0  0  0  0  0  0  0  0  0  0
    3.1027    3.8740    0.0000 N   0  0  0  0  0  0  0  0  0  0  0  0
    1.6109    3.7172    0.0000 N   0  0  0  0  0  0  0  0  0  0  0  0
    1.2990    2.2500    0.0000 C   0  0  0  0  0  0  0  0  0  0  0  0
    0.0000    1.5000    0.0000 C   0  0  0  0  0  0  0  0  0  0  0  0
    0.0000    0.0000    0.0000 C   0  0  0  0  0  0  0  0  0  0  0  0
    1.2990   -0.7500    0.0000 N   0  0  0  0  0  0  0  0  0  0  0  0
    2.5981   -0.0000    0.0000 C   0  0  0  0  0  0  0  0  0  0  0  0
    2.5981    1.5000    0.0000 N   0  0  0  0  0  0  0  0  0  0  0  0
    3.8971   -0.7500    0.0000 S   0  0  0  0  0  0  0  0  0  0  0  0
    3.8971   -2.2500    0.0000 C   0  0  0  0  0  0  0  0  0  0  0  0
    2.4199   -1.9895    0.0000 H   0  0  0  0  0  0  0  0  0  0  0  0
    3.3841   -3.6595    0.0000 H   0  0  0  0  0  0  0  0  0  0  0  0
    5.1962   -3.0000    0.0000 C   0  0  0  0  0  0  0  0  0  0  0  0
    6.6734   -3.2605    0.0000 H   0  0  0  0  0  0  0  0  0  0  0  0
    5.7092   -1.5905    0.0000 H   0  0  0  0  0  0  0  0  0  0  0  0
    5.1962   -4.5000    0.0000 C   0  0  0  0  0  0  0  0  0  0  0  0
    6.4952   -5.2500    0.0000 H   0  0  0  0  0  0  0  0  0  0  0  0
    3.7189   -4.2395    0.0000 H   0  0  0  0  0  0  0  0  0  0  0  0
    4.6831   -5.9095    0.0000 H   0  0  0  0  0  0  0  0  0  0  0  0
   -1.4266   -0.4635    0.0000 S   0  0  0  0  0  0  0  0  0  0  0  0
   -2.3083    0.7500    0.0000 C   0  0  0  0  0  0  0  0  0  0  0  0
   -1.4266    1.9635    0.0000 C   0  0  0  0  0  0  0  0  0  0  0  0
   -2.3083    3.1771    0.0000 C   0  0  0  0  0  0  0  0  0  0  0  0
   -1.0092    3.9271    0.0000 H   0  0  0  0  0  0  0  0  0  0  0  0
   -2.9184    4.5474    0.0000 H   0  0  0  0  0  0  0  0  0  0  0  0
   -3.7348    2.7135    0.0000 C   0  0  0  0  0  0  0  0  0  0  0  0
   -4.0467    4.1807    0.0000 H   0  0  0  0  0  0  0  0  0  0  0  0
   -5.2266    2.5567    0.0000 H   0  0  0  0  0  0  0  0  0  0  0  0
   -3.7348    1.2135    0.0000 C   0  0  0  0  0  0  0  0  0  0  0  0
   -5.2266    1.3703    0.0000 H   0  0  0  0  0  0  0  0  0  0  0  0
   -4.0467   -0.2537    0.0000 H   0  0  0  0  0  0  0  0  0  0  0  0
  2  1  1  0  0  0  0 
  3  2  2  0  0  0  0 
  4  3  1  0  0  0  0 
  5  4  2  0  0  0  0 
  6  5  1  0  0  0  0 
  7  6  2  0  0  0  0 
  8  7  1  0  0  0  0 
  9  8  2  0  0  0  0 
 10  9  1  0  0  0  0 
 10  2  1  0  0  0  0 
 10  5  1  0  0  0  0 
 11  9  1  0  0  0  0 
 12 11  1  0  0  0  0 
 13 12  1  0  0  0  0 
 14 12  1  0  0  0  0 
 15 12  1  0  0  0  0 
 16 15  1  0  0  0  0 
 17 15  1  0  0  0  0 
 18 15  1  0  0  0  0 
 19 18  1  0  0  0  0 
 20 18  1  0  0  0  0 
 21 18  1  0  0  0  0 
 22  7  1  0  0  0  0 
 23 22  1  0  0  0  0 
 24 23  2  0  0  0  0 
 24  6  1  0  0  0  0 
 25 24  1  0  0  0  0 
 26 25  1  0  0  0  0 
 27 25  1  0  0  0  0 
 28 25  1  0  0  0  0 
 29 28  1  0  0  0  0 
 30 28  1  0  0  0  0 
 31 28  1  0  0  0  0 
 31 23  1  0  0  0  0 
 32 31  1  0  0  0  0 
 33 31  1  0  0  0  0 
M  END
> <id>
2220298

> <origin>
MetFrag

> <smiles>
[H]c1nnc2c3c(nc(n12)SC([H])([H])C([H])([H])C([H])([H])[H])sc4c3C([H])([H])C([H])([H])C4([H])([H])

> <name>
ZINC02867314

> <peaksExplained>
1

> <tiedRank>
10

> <URL>
http://pubchem.ncbi.nlm.nih.gov/summary/summary.cgi?cid=2220298

> <newscore>
0.5171136217364102

> <clusterRank>
10

> <origscore>
0.14225

$$$$

  CDK     1213131428

 36 38  0  0  0  0  0  0  0  0999 V2000
   -3.0846    8.1531    0.0000 H   0  0  0  0  0  0  0  0  0  0  0  0
   -1.6580    7.6896    0.0000 O   0  0  0  0  0  0  0  0  0  0  0  0
   -1.3461    6.2224    0.0000 C   0  0  0  0  0  0  0  0  0  0  0  0
   -2.4608    5.2187    0.0000 O   0  0  0  0  0  0  0  0  0  0  0  0
    0.0805    5.7589    0.0000 C   0  0  0  0  0  0  0  0  0  0  0  0
   -0.6237    4.4344    0.0000 C   0  0  0  0  0  0  0  0  0  0  0  0
   -1.8058    5.3579    0.0000 H   0  0  0  0  0  0  0  0  0  0  0  0
    0.8028    3.9709    0.0000 C   0  0  0  0  0  0  0  0  0  0  0  0
    2.3019    4.0233    0.0000 H   0  0  0  0  0  0  0  0  0  0  0  0
    1.0116    5.4563    0.0000 H   0  0  0  0  0  0  0  0  0  0  0  0
    1.1147    2.5037    0.0000 C   0  0  0  0  0  0  0  0  0  0  0  0
    1.9096    1.2316    0.0000 H   0  0  0  0  0  0  0  0  0  0  0  0
    2.5055    3.0656    0.0000 H   0  0  0  0  0  0  0  0  0  0  0  0
    0.0000    1.5000    0.0000 C   0  0  0  0  0  0  0  0  0  0  0  0
    1.3703    0.8899    0.0000 H   0  0  0  0  0  0  0  0  0  0  0  0
    0.0000    0.0000    0.0000 O   0  0  0  0  0  0  0  0  0  0  0  0
   -1.4266   -0.4635    0.0000 C   0  0  0  0  0  0  0  0  0  0  0  0
   -2.7256   -1.2135    0.0000 H   0  0  0  0  0  0  0  0  0  0  0  0
   -0.8165   -1.8338    0.0000 H   0  0  0  0  0  0  0  0  0  0  0  0
   -2.3083    0.7500    0.0000 O   0  0  0  0  0  0  0  0  0  0  0  0
   -1.4266    1.9635    0.0000 C   0  0  0  0  0  0  0  0  0  0  0  0
   -2.8938    2.2754    0.0000 H   0  0  0  0  0  0  0  0  0  0  0  0
   -1.7385    3.4307    0.0000 C   0  0  0  0  0  0  0  0  0  0  0  0
   -2.5333    4.7028    0.0000 H   0  0  0  0  0  0  0  0  0  0  0  0
   -3.1292    2.8688    0.0000 H   0  0  0  0  0  0  0  0  0  0  0  0
    0.2892    7.2443    0.0000 S   0  0  0  0  0  0  0  0  0  0  0  0
    1.6800    7.8062    0.0000 C   0  0  0  0  0  0  0  0  0  0  0  0
    2.7947    8.8099    0.0000 H   0  0  0  0  0  0  0  0  0  0  0  0
    0.8851    9.0782    0.0000 H   0  0  0  0  0  0  0  0  0  0  0  0
    2.8620    6.8827    0.0000 C   0  0  0  0  0  0  0  0  0  0  0  0
    4.2886    6.4192    0.0000 H   0  0  0  0  0  0  0  0  0  0  0  0
    3.5662    8.2071    0.0000 H   0  0  0  0  0  0  0  0  0  0  0  0
    2.6533    5.3973    0.0000 C   0  0  0  0  0  0  0  0  0  0  0  0
    2.9651    3.9301    0.0000 H   0  0  0  0  0  0  0  0  0  0  0  0
    4.1524    5.4496    0.0000 H   0  0  0  0  0  0  0  0  0  0  0  0
    1.2625    4.8354    0.0000 S   0  0  0  0  0  0  0  0  0  0  0  0
  2  1  1  0  0  0  0 
  3  2  1  0  0  0  0 
  4  3  2  0  0  0  0 
  5  3  1  0  0  0  0 
  6  5  1  0  0  0  0 
  7  6  1  0  0  0  0 
  8  6  1  0  0  0  0 
  9  8  1  0  0  0  0 
 10  8  1  0  0  0  0 
 11  8  1  0  0  0  0 
 12 11  1  0  0  0  0 
 13 11  1  0  0  0  0 
 14 11  1  0  0  0  0 
 15 14  1  0  0  0  0 
 16 14  1  0  0  0  0 
 17 16  1  0  0  0  0 
 18 17  1  0  0  0  0 
 19 17  1  0  0  0  0 
 20 17  1  0  0  0  0 
 21 20  1  0  0  0  0 
 21 14  1  0  0  0  0 
 22 21  1  0  0  0  0 
 23 21  1  0  0  0  0 
 23  6  1  0  0  0  0 
 24 23  1  0  0  0  0 
 25 23  1  0  0  0  0 
 26  5  1  0  0  0  0 
 27 26  1  0  0  0  0 
 28 27  1  0  0  0  0 
 29 27  1  0  0  0  0 
 30 27  1  0  0  0  0 
 31 30  1  0  0  0  0 
 32 30  1  0  0  0  0 
 33 30  1  0  0  0  0 
 34 33  1  0  0  0  0 
 35 33  1  0  0  0  0 
 36 33  1  0  0  0  0 
 36  5  1  0  0  0  0 
M  END
> <id>
3802764

> <origin>
MetFrag

> <smiles>
[H]OC(=O)C3(C2([H])(C([H])([H])C1([H])(OC([H])([H])OC1([H])C([H])([H])C2([H])([H]))))(SC([H])([H])C([H])([H])C([H])([H])S3)

> <name>
2-(3a,4,5,6,7,7a-hexahydro-1,3-benzodioxol-5-yl)-1,3-dithiane-2-carboxylic acid

> <peaksExplained>
1

> <tiedRank>
11

> <URL>
http://pubchem.ncbi.nlm.nih.gov/summary/summary.cgi?cid=3802764

> <newscore>
0.5152860380612553

> <clusterRank>
11

> <origscore>
0.0685

$$$$

  CDK     1213131428

 36 36  0  0  0  0  0  0  0  0999 V2000
    2.5838    1.7716    0.0000 H   0  0  0  0  0  0  0  0  0  0  0  0
    1.2135    2.3817    0.0000 O   0  0  0  0  0  0  0  0  0  0  0  0
    0.0000    1.5000    0.0000 C   0  0  0  0  0  0  0  0  0  0  0  0
    0.0000    0.0000    0.0000 C   0  0  0  0  0  0  0  0  0  0  0  0
   -1.4266   -0.4635    0.0000 C   0  0  0  0  0  0  0  0  0  0  0  0
   -1.8901   -1.8901    0.0000 O   0  0  0  0  0  0  0  0  0  0  0  0
   -2.3083    0.7500    0.0000 O   0  0  0  0  0  0  0  0  0  0  0  0
   -1.4266    1.9635    0.0000 C   0  0  0  0  0  0  0  0  0  0  0  0
   -0.8165    3.3338    0.0000 H   0  0  0  0  0  0  0  0  0  0  0  0
   -2.7256    2.7135    0.0000 C   0  0  0  0  0  0  0  0  0  0  0  0
   -4.2028    2.9740    0.0000 H   0  0  0  0  0  0  0  0  0  0  0  0
   -3.2387    1.3040    0.0000 H   0  0  0  0  0  0  0  0  0  0  0  0
   -2.7256    4.2135    0.0000 C   0  0  0  0  0  0  0  0  0  0  0  0
   -1.2484    3.9531    0.0000 H   0  0  0  0  0  0  0  0  0  0  0  0
   -2.2126    5.6231    0.0000 C   0  0  0  0  0  0  0  0  0  0  0  0
   -3.1768    6.7721    0.0000 H   0  0  0  0  0  0  0  0  0  0  0  0
   -0.9136    4.8731    0.0000 H   0  0  0  0  0  0  0  0  0  0  0  0
   -1.2484    6.7721    0.0000 H   0  0  0  0  0  0  0  0  0  0  0  0
   -4.0247    4.9635    0.0000 S   0  0  0  0  0  0  0  0  0  0  0  0
   -4.0247    6.4635    0.0000 C   0  0  0  0  0  0  0  0  0  0  0  0
   -5.3237    7.2135    0.0000 H   0  0  0  0  0  0  0  0  0  0  0  0
   -2.5474    6.2031    0.0000 H   0  0  0  0  0  0  0  0  0  0  0  0
   -3.5116    7.8731    0.0000 H   0  0  0  0  0  0  0  0  0  0  0  0
    1.2135   -0.8817    0.0000 C   0  0  0  0  0  0  0  0  0  0  0  0
    2.5838   -0.2716    0.0000 O   0  0  0  0  0  0  0  0  0  0  0  0
    1.0567   -2.3735    0.0000 C   0  0  0  0  0  0  0  0  0  0  0  0
   -0.3852   -1.9600    0.0000 H   0  0  0  0  0  0  0  0  0  0  0  0
    0.3992   -3.7217    0.0000 H   0  0  0  0  0  0  0  0  0  0  0  0
    2.2703   -3.2551    0.0000 C   0  0  0  0  0  0  0  0  0  0  0  0
    3.7122   -3.6686    0.0000 H   0  0  0  0  0  0  0  0  0  0  0  0
    2.9278   -1.9069    0.0000 H   0  0  0  0  0  0  0  0  0  0  0  0
    2.1135   -4.7469    0.0000 S   0  0  0  0  0  0  0  0  0  0  0  0
    3.3270   -5.6286    0.0000 C   0  0  0  0  0  0  0  0  0  0  0  0
    3.1702   -7.1204    0.0000 H   0  0  0  0  0  0  0  0  0  0  0  0
    4.7689   -6.0421    0.0000 H   0  0  0  0  0  0  0  0  0  0  0  0
    3.9845   -4.2804    0.0000 H   0  0  0  0  0  0  0  0  0  0  0  0
  2  1  1  0  0  0  0 
  3  2  1  0  0  0  0 
  4  3  2  0  0  0  0 
  5  4  1  0  0  0  0 
  6  5  2  0  0  0  0 
  7  5  1  0  0  0  0 
  8  7  1  0  0  0  0 
  8  3  1  0  0  0  0 
  9  8  1  0  0  0  0 
 10  8  1  0  0  0  0 
 11 10  1  0  0  0  0 
 12 10  1  0  0  0  0 
 13 10  1  0  0  0  0 
 14 13  1  0  0  0  0 
 15 13  1  0  0  0  0 
 16 15  1  0  0  0  0 
 17 15  1  0  0  0  0 
 18 15  1  0  0  0  0 
 19 13  1  0  0  0  0 
 20 19  1  0  0  0  0 
 21 20  1  0  0  0  0 
 22 20  1  0  0  0  0 
 23 20  1  0  0  0  0 
 24  4  1  0  0  0  0 
 25 24  2  0  0  0  0 
 26 24  1  0  0  0  0 
 27 26  1  0  0  0  0 
 28 26  1  0  0  0  0 
 29 26  1  0  0  0  0 
 30 29  1  0  0  0  0 
 31 29  1  0  0  0  0 
 32 29  1  0  0  0  0 
 33 32  1  0  0  0  0 
 34 33  1  0  0  0  0 
 35 33  1  0  0  0  0 
 36 33  1  0  0  0  0 
M  END
> <id>
69135264

> <origin>
MetFrag

> <smiles>
[H]OC1=C(C(=O)OC1([H])C([H])([H])C([H])(C([H])([H])[H])SC([H])([H])[H])C(=O)C([H])([H])C([H])([H])SC([H])([H])[H]

> <name>
69135264

> <peaksExplained>
0

> <tiedRank>
12

> <URL>
http://pubchem.ncbi.nlm.nih.gov/summary/summary.cgi?cid=69135264

> <newscore>
0.509631322002852

> <clusterRank>
12

> <origscore>
0.0

$$$$

  CDK     1213131428

 34 35  0  0  0  0  0  0  0  0999 V2000
   -5.0395    0.6114    0.0000 H   0  0  0  0  0  0  0  0  0  0  0  0
   -4.0753    1.7605    0.0000 O   0  0  0  0  0  0  0  0  0  0  0  0
   -2.5981    1.5000    0.0000 C   0  0  0  0  0  0  0  0  0  0  0  0
   -3.1111    0.0905    0.0000 H   0  0  0  0  0  0  0  0  0  0  0  0
   -2.5981    3.0000    0.0000 O   0  0  0  0  0  0  0  0  0  0  0  0
   -1.2990    3.7500    0.0000 C   0  0  0  0  0  0  0  0  0  0  0  0
   -0.3349    4.8991    0.0000 H   0  0  0  0  0  0  0  0  0  0  0  0
   -2.2632    4.8991    0.0000 C   0  0  0  0  0  0  0  0  0  0  0  0
   -3.5623    5.6491    0.0000 H   0  0  0  0  0  0  0  0  0  0  0  0
   -3.2274    3.7500    0.0000 H   0  0  0  0  0  0  0  0  0  0  0  0
   -1.7502    6.3086    0.0000 O   0  0  0  0  0  0  0  0  0  0  0  0
   -2.7144    7.4577    0.0000 C   0  0  0  0  0  0  0  0  0  0  0  0
   -4.1916    7.1972    0.0000 O   0  0  0  0  0  0  0  0  0  0  0  0
   -2.2013    8.8672    0.0000 C   0  0  0  0  0  0  0  0  0  0  0  0
   -3.1655   10.0163    0.0000 H   0  0  0  0  0  0  0  0  0  0  0  0
   -0.9023    8.1172    0.0000 H   0  0  0  0  0  0  0  0  0  0  0  0
   -1.2372   10.0163    0.0000 H   0  0  0  0  0  0  0  0  0  0  0  0
   -0.0000    3.0000    0.0000 C   0  0  0  0  0  0  0  0  0  0  0  0
    1.4772    2.7395    0.0000 H   0  0  0  0  0  0  0  0  0  0  0  0
    0.5130    4.4095    0.0000 O   0  0  0  0  0  0  0  0  0  0  0  0
    1.9902    4.6700    0.0000 C   0  0  0  0  0  0  0  0  0  0  0  0
    2.9544    3.5209    0.0000 O   0  0  0  0  0  0  0  0  0  0  0  0
    2.5033    6.0796    0.0000 C   0  0  0  0  0  0  0  0  0  0  0  0
    3.9805    6.3400    0.0000 H   0  0  0  0  0  0  0  0  0  0  0  0
    2.5033    7.5796    0.0000 H   0  0  0  0  0  0  0  0  0  0  0  0
    1.0261    6.3400    0.0000 H   0  0  0  0  0  0  0  0  0  0  0  0
    0.0000    1.5000    0.0000 C   0  0  0  0  0  0  0  0  0  0  0  0
    1.5000    1.5000    0.0000 O   0  0  0  0  0  0  0  0  0  0  0  0
    2.2500    0.2010    0.0000 H   0  0  0  0  0  0  0  0  0  0  0  0
    0.0000    0.0000    0.0000 C   0  0  0  0  0  0  0  0  0  0  0  0
    0.7500   -1.2990    0.0000 O   0  0  0  0  0  0  0  0  0  0  0  0
   -1.2990    0.7500    0.0000 C   0  0  0  0  0  0  0  0  0  0  0  0
   -2.0490   -0.5490    0.0000 O   0  0  0  0  0  0  0  0  0  0  0  0
   -1.2990   -1.8481    0.0000 H   0  0  0  0  0  0  0  0  0  0  0  0
  2  1  1  0  0  0  0 
  3  2  1  0  0  0  0 
  4  3  1  0  0  0  0 
  5  3  1  0  0  0  0 
  6  5  1  0  0  0  0 
  7  6  1  0  0  0  0 
  8  6  1  0  0  0  0 
  9  8  1  0  0  0  0 
 10  8  1  0  0  0  0 
 11  8  1  0  0  0  0 
 12 11  1  0  0  0  0 
 13 12  2  0  0  0  0 
 14 12  1  0  0  0  0 
 15 14  1  0  0  0  0 
 16 14  1  0  0  0  0 
 17 14  1  0  0  0  0 
 18  6  1  0  0  0  0 
 19 18  1  0  0  0  0 
 20 18  1  0  0  0  0 
 21 20  1  0  0  0  0 
 22 21  2  0  0  0  0 
 23 21  1  0  0  0  0 
 24 23  1  0  0  0  0 
 25 23  1  0  0  0  0 
 26 23  1  0  0  0  0 
 27 18  1  0  0  0  0 
 28 27  1  0  0  0  0 
 29 28  1  0  0  0  0 
 30 27  1  0  0  0  0 
 31 30  2  0  0  0  0 
 32 30  1  0  0  0  0 
 32  3  1  0  0  0  0 
 32 27  1  0  0  0  0 
 33 32  1  0  0  0  0 
 34 33  1  0  0  0  0 
M  END
> <id>
71150059

> <origin>
MetFrag

> <smiles>
[H]OC1([H])(OC([H])(C([H])([H])OC(=O)C([H])([H])[H])C([H])(OC(=O)C([H])([H])[H])C2(O[H])(C(=O)C12(O[H])))

> <name>
71150059

> <peaksExplained>
0

> <tiedRank>
13

> <URL>
http://pubchem.ncbi.nlm.nih.gov/summary/summary.cgi?cid=71150059

> <newscore>
0.5094701599009228

> <clusterRank>
13

> <origscore>
0.0

$$$$

  CDK     1213131428

 34 35  0  0  0  0  0  0  0  0999 V2000
    2.7256    5.7135    0.0000 H   0  0  0  0  0  0  0  0  0  0  0  0
    2.7256    4.2135    0.0000 O   0  0  0  0  0  0  0  0  0  0  0  0
    1.4266    3.4635    0.0000 C   0  0  0  0  0  0  0  0  0  0  0  0
    0.8165    4.8338    0.0000 H   0  0  0  0  0  0  0  0  0  0  0  0
    0.0000    3.0000    0.0000 O   0  0  0  0  0  0  0  0  0  0  0  0
    0.0000    1.5000    0.0000 C   0  0  0  0  0  0  0  0  0  0  0  0
    0.0000    0.0000    0.0000 C   0  0  0  0  0  0  0  0  0  0  0  0
    1.2135   -0.8817    0.0000 O   0  0  0  0  0  0  0  0  0  0  0  0
   -1.4266   -0.4635    0.0000 O   0  0  0  0  0  0  0  0  0  0  0  0
   -2.3083    0.7500    0.0000 C   0  0  0  0  0  0  0  0  0  0  0  0
   -3.4230    1.7537    0.0000 H   0  0  0  0  0  0  0  0  0  0  0  0
   -3.4230   -0.2537    0.0000 C   0  0  0  0  0  0  0  0  0  0  0  0
   -3.1111   -1.7209    0.0000 O   0  0  0  0  0  0  0  0  0  0  0  0
   -4.8496    0.2098    0.0000 O   0  0  0  0  0  0  0  0  0  0  0  0
   -5.9643   -0.7939    0.0000 C   0  0  0  0  0  0  0  0  0  0  0  0
   -7.3909   -0.3303    0.0000 H   0  0  0  0  0  0  0  0  0  0  0  0
   -6.6685   -2.1183    0.0000 H   0  0  0  0  0  0  0  0  0  0  0  0
   -4.7823   -1.7174    0.0000 H   0  0  0  0  0  0  0  0  0  0  0  0
   -1.4266    1.9635    0.0000 C   0  0  0  0  0  0  0  0  0  0  0  0
   -0.8165    3.3338    0.0000 O   0  0  0  0  0  0  0  0  0  0  0  0
   -1.6982    4.5474    0.0000 H   0  0  0  0  0  0  0  0  0  0  0  0
   -2.7256    2.7135    0.0000 C   0  0  0  0  0  0  0  0  0  0  0  0
   -4.0247    1.9635    0.0000 O   0  0  0  0  0  0  0  0  0  0  0  0
   -2.7256    4.2135    0.0000 O   0  0  0  0  0  0  0  0  0  0  0  0
   -4.0247    4.9635    0.0000 C   0  0  0  0  0  0  0  0  0  0  0  0
   -4.0247    6.4635    0.0000 H   0  0  0  0  0  0  0  0  0  0  0  0
   -5.5019    5.2240    0.0000 H   0  0  0  0  0  0  0  0  0  0  0  0
   -4.5377    3.5540    0.0000 H   0  0  0  0  0  0  0  0  0  0  0  0
    1.4266    1.0365    0.0000 C   0  0  0  0  0  0  0  0  0  0  0  0
    0.8165   -0.3338    0.0000 H   0  0  0  0  0  0  0  0  0  0  0  0
    2.7256    0.2865    0.0000 H   0  0  0  0  0  0  0  0  0  0  0  0
    2.3083    2.2500    0.0000 C   0  0  0  0  0  0  0  0  0  0  0  0
    3.4230    1.2463    0.0000 H   0  0  0  0  0  0  0  0  0  0  0  0
    3.4230    3.2537    0.0000 H   0  0  0  0  0  0  0  0  0  0  0  0
  2  1  1  0  0  0  0 
  3  2  1  0  0  0  0 
  4  3  1  0  0  0  0 
  5  3  1  0  0  0  0 
  6  5  1  0  0  0  0 
  7  6  1  0  0  0  0 
  8  7  2  0  0  0  0 
  9  7  1  0  0  0  0 
 10  9  1  0  0  0  0 
 11 10  1  0  0  0  0 
 12 10  1  0  0  0  0 
 13 12  2  0  0  0  0 
 14 12  1  0  0  0  0 
 15 14  1  0  0  0  0 
 16 15  1  0  0  0  0 
 17 15  1  0  0  0  0 
 18 15  1  0  0  0  0 
 19 10  1  0  0  0  0 
 19  6  1  0  0  0  0 
 20 19  1  0  0  0  0 
 21 20  1  0  0  0  0 
 22 19  1  0  0  0  0 
 23 22  2  0  0  0  0 
 24 22  1  0  0  0  0 
 25 24  1  0  0  0  0 
 26 25  1  0  0  0  0 
 27 25  1  0  0  0  0 
 28 25  1  0  0  0  0 
 29  6  1  0  0  0  0 
 30 29  1  0  0  0  0 
 31 29  1  0  0  0  0 
 32 29  1  0  0  0  0 
 32  3  1  0  0  0  0 
 33 32  1  0  0  0  0 
 34 32  1  0  0  0  0 
M  END
> <id>
10880783

> <origin>
MetFrag

> <smiles>
[H]OC2([H])(OC1(C(=O)OC([H])(C(=O)OC([H])([H])[H])C1(O[H])(C(=O)OC([H])([H])[H]))C([H])([H])C2([H])([H]))

> <name>
dimethyl (5R,6S,7R)-2,6-dihydroxy-9-oxo-1,8-dioxaspiro[4.4]nonane-6,7-dicarboxylate

> <peaksExplained>
1

> <tiedRank>
14

> <URL>
http://pubchem.ncbi.nlm.nih.gov/summary/summary.cgi?cid=10880783

> <newscore>
0.5086042360604714

> <clusterRank>
14

> <origscore>
0.0

$$$$

  CDK     1213131428

 33 36  0  0  0  0  0  0  0  0999 V2000
    3.8971   -0.7500    0.0000 H   0  0  0  0  0  0  0  0  0  0  0  0
    2.5981   -0.0000    0.0000 C   0  0  0  0  0  0  0  0  0  0  0  0
    2.5981    1.5000    0.0000 C   0  0  0  0  0  0  0  0  0  0  0  0
    3.8971    2.2500    0.0000 H   0  0  0  0  0  0  0  0  0  0  0  0
    1.2990    2.2500    0.0000 C   0  0  0  0  0  0  0  0  0  0  0  0
    1.2990    3.7500    0.0000 H   0  0  0  0  0  0  0  0  0  0  0  0
    0.0000    1.5000    0.0000 C   0  0  0  0  0  0  0  0  0  0  0  0
    0.0000    0.0000    0.0000 C   0  0  0  0  0  0  0  0  0  0  0  0
   -1.4266   -0.4635    0.0000 N   0  0  0  0  0  0  0  0  0  0  0  0
   -2.3083    0.7500    0.0000 C   0  0  0  0  0  0  0  0  0  0  0  0
   -3.8083    0.7500    0.0000 N   0  0  0  0  0  0  0  0  0  0  0  0
   -4.6899   -0.4635    0.0000 C   0  0  0  0  0  0  0  0  0  0  0  0
   -6.1165    0.0000    0.0000 N   0  0  0  0  0  0  0  0  0  0  0  0
   -7.3301   -0.8817    0.0000 H   0  0  0  0  0  0  0  0  0  0  0  0
   -6.1165    1.5000    0.0000 C   0  0  0  0  0  0  0  0  0  0  0  0
   -4.6899    1.9635    0.0000 N   0  0  0  0  0  0  0  0  0  0  0  0
   -4.2264    3.3901    0.0000 H   0  0  0  0  0  0  0  0  0  0  0  0
   -6.4284    2.9672    0.0000 C   0  0  0  0  0  0  0  0  0  0  0  0
   -7.8550    3.4307    0.0000 H   0  0  0  0  0  0  0  0  0  0  0  0
   -4.9293    3.0196    0.0000 H   0  0  0  0  0  0  0  0  0  0  0  0
   -6.2196    4.4526    0.0000 H   0  0  0  0  0  0  0  0  0  0  0  0
   -7.6083    1.3432    0.0000 C   0  0  0  0  0  0  0  0  0  0  0  0
   -8.0218    2.7851    0.0000 H   0  0  0  0  0  0  0  0  0  0  0  0
   -7.7129   -0.1531    0.0000 C   0  0  0  0  0  0  0  0  0  0  0  0
   -8.3230   -1.5235    0.0000 H   0  0  0  0  0  0  0  0  0  0  0  0
   -6.2575   -0.5160    0.0000 H   0  0  0  0  0  0  0  0  0  0  0  0
   -8.9565    0.6857    0.0000 C   0  0  0  0  0  0  0  0  0  0  0  0
   -9.8382    1.8992    0.0000 H   0  0  0  0  0  0  0  0  0  0  0  0
   -9.9985   -0.3934    0.0000 H   0  0  0  0  0  0  0  0  0  0  0  0
   -4.2264   -1.8901    0.0000 S   0  0  0  0  0  0  0  0  0  0  0  0
   -1.4266    1.9635    0.0000 S   0  0  0  0  0  0  0  0  0  0  0  0
    1.2990   -0.7500    0.0000 C   0  0  0  0  0  0  0  0  0  0  0  0
    1.2990   -2.2500    0.0000 H   0  0  0  0  0  0  0  0  0  0  0  0
  2  1  1  0  0  0  0 
  3  2  2  0  0  0  0 
  4  3  1  0  0  0  0 
  5  3  1  0  0  0  0 
  6  5  1  0  0  0  0 
  7  5  2  0  0  0  0 
  8  7  1  0  0  0  0 
  9  8  1  0  0  0  0 
 10  9  2  0  0  0  0 
 11 10  1  0  0  0  0 
 12 11  1  0  0  0  0 
 13 12  1  0  0  0  0 
 14 13  1  0  0  0  0 
 15 13  1  0  0  0  0 
 16 15  1  0  0  0  0 
 16 11  1  0  0  0  0 
 17 16  1  0  0  0  0 
 18 15  1  0  0  0  0 
 19 18  1  0  0  0  0 
 20 18  1  0  0  0  0 
 21 18  1  0  0  0  0 
 22 15  1  0  0  0  0 
 23 22  1  0  0  0  0 
 24 22  1  0  0  0  0 
 25 24  1  0  0  0  0 
 26 24  1  0  0  0  0 
 27 24  1  0  0  0  0 
 27 22  1  0  0  0  0 
 28 27  1  0  0  0  0 
 29 27  1  0  0  0  0 
 30 12  2  0  0  0  0 
 31 10  1  0  0  0  0 
 31  7  1  0  0  0  0 
 32  8  2  0  0  0  0 
 32  2  1  0  0  0  0 
 33 32  1  0  0  0  0 
M  END
> <id>
19578443

> <origin>
MetFrag

> <smiles>
[H]c4c3nc(N1C(N([H])C(N1([H]))(C([H])([H])[H])C2([H])(C([H])([H])C2([H])([H])))=S)sc3c([H])c([H])c4([H])

> <name>
2-(1,3-benzothiazol-2-yl)-5-cyclopropyl-5-methyl-1,2,4-triazolidine-3-thione

> <peaksExplained>
1

> <tiedRank>
15

> <URL>
http://pubchem.ncbi.nlm.nih.gov/summary/summary.cgi?cid=19578443

> <newscore>
0.5080782901030886

> <clusterRank>
15

> <origscore>
0.10525

$$$$

  CDK     1213131428

 33 34  0  0  0  0  0  0  0  0999 V2000
    7.4379    5.2983    0.0000 H   0  0  0  0  0  0  0  0  0  0  0  0
    6.2244    4.4166    0.0000 C   0  0  0  0  0  0  0  0  0  0  0  0
    6.3812    2.9248    0.0000 C   0  0  0  0  0  0  0  0  0  0  0  0
    7.7515    2.3147    0.0000 H   0  0  0  0  0  0  0  0  0  0  0  0
    5.1677    2.0431    0.0000 C   0  0  0  0  0  0  0  0  0  0  0  0
    5.3245    0.5514    0.0000 H   0  0  0  0  0  0  0  0  0  0  0  0
    3.7974    2.6533    0.0000 C   0  0  0  0  0  0  0  0  0  0  0  0
    3.6406    4.1450    0.0000 C   0  0  0  0  0  0  0  0  0  0  0  0
    2.2703    4.7551    0.0000 C   0  0  0  0  0  0  0  0  0  0  0  0
    0.8999    5.3652    0.0000 N   0  0  0  0  0  0  0  0  0  0  0  0
    4.8541    5.0267    0.0000 C   0  0  0  0  0  0  0  0  0  0  0  0
    4.6973    6.5185    0.0000 H   0  0  0  0  0  0  0  0  0  0  0  0
    2.5838    1.7716    0.0000 C   0  0  0  0  0  0  0  0  0  0  0  0
    1.7451    0.5280    0.0000 H   0  0  0  0  0  0  0  0  0  0  0  0
    3.6629    0.7296    0.0000 H   0  0  0  0  0  0  0  0  0  0  0  0
    1.2135    2.3817    0.0000 S   0  0  0  0  0  0  0  0  0  0  0  0
    0.0000    1.5000    0.0000 C   0  0  0  0  0  0  0  0  0  0  0  0
    0.0000    0.0000    0.0000 N   0  0  0  0  0  0  0  0  0  0  0  0
   -1.4266   -0.4635    0.0000 N   0  0  0  0  0  0  0  0  0  0  0  0
   -2.3083    0.7500    0.0000 C   0  0  0  0  0  0  0  0  0  0  0  0
   -3.8083    0.7500    0.0000 N   0  0  0  0  0  0  0  0  0  0  0  0
   -4.5583    2.0490    0.0000 H   0  0  0  0  0  0  0  0  0  0  0  0
   -4.5583   -0.5490    0.0000 C   0  0  0  0  0  0  0  0  0  0  0  0
   -4.8187   -2.0262    0.0000 H   0  0  0  0  0  0  0  0  0  0  0  0
   -3.1487   -1.0621    0.0000 H   0  0  0  0  0  0  0  0  0  0  0  0
   -6.0583   -0.5490    0.0000 C   0  0  0  0  0  0  0  0  0  0  0  0
   -5.7978    0.9282    0.0000 H   0  0  0  0  0  0  0  0  0  0  0  0
   -7.4678   -0.0360    0.0000 H   0  0  0  0  0  0  0  0  0  0  0  0
   -6.8083   -1.8481    0.0000 C   0  0  0  0  0  0  0  0  0  0  0  0
   -8.3083   -1.8481    0.0000 H   0  0  0  0  0  0  0  0  0  0  0  0
   -7.0687   -3.3253    0.0000 H   0  0  0  0  0  0  0  0  0  0  0  0
   -5.3987   -2.3611    0.0000 H   0  0  0  0  0  0  0  0  0  0  0  0
   -1.4266    1.9635    0.0000 S   0  0  0  0  0  0  0  0  0  0  0  0
  2  1  1  0  0  0  0 
  3  2  2  0  0  0  0 
  4  3  1  0  0  0  0 
  5  3  1  0  0  0  0 
  6  5  1  0  0  0  0 
  7  5  2  0  0  0  0 
  8  7  1  0  0  0  0 
  9  8  1  0  0  0  0 
 10  9  3  0  0  0  0 
 11  8  2  0  0  0  0 
 11  2  1  0  0  0  0 
 12 11  1  0  0  0  0 
 13  7  1  0  0  0  0 
 14 13  1  0  0  0  0 
 15 13  1  0  0  0  0 
 16 13  1  0  0  0  0 
 17 16  1  0  0  0  0 
 18 17  2  0  0  0  0 
 19 18  1  0  0  0  0 
 20 19  2  0  0  0  0 
 21 20  1  0  0  0  0 
 22 21  1  0  0  0  0 
 23 21  1  0  0  0  0 
 24 23  1  0  0  0  0 
 25 23  1  0  0  0  0 
 26 23  1  0  0  0  0 
 27 26  1  0  0  0  0 
 28 26  1  0  0  0  0 
 29 26  1  0  0  0  0 
 30 29  1  0  0  0  0 
 31 29  1  0  0  0  0 
 32 29  1  0  0  0  0 
 33 20  1  0  0  0  0 
 33 17  1  0  0  0  0 
M  END
> <id>
8209417

> <origin>
MetFrag

> <smiles>
[H]c1c(C#N)c(c([H])c([H])c1([H]))C([H])([H])Sc2nnc(N([H])C([H])([H])C([H])([H])C([H])([H])[H])s2

> <name>
2-[[5-(propylamino)-1,3,4-thiadiazol-2-yl]sulfanylmethyl]benzonitrile

> <peaksExplained>
1

> <tiedRank>
16

> <URL>
http://pubchem.ncbi.nlm.nih.gov/summary/summary.cgi?cid=8209417

> <newscore>
0.5072210269914474

> <clusterRank>
16

> <origscore>
0.13274999999999998

$$$$

  CDK     1213131428

 33 34  0  0  0  0  0  0  0  0999 V2000
    4.6973    6.5185    0.0000 H   0  0  0  0  0  0  0  0  0  0  0  0
    4.8541    5.0267    0.0000 C   0  0  0  0  0  0  0  0  0  0  0  0
    6.2244    4.4166    0.0000 C   0  0  0  0  0  0  0  0  0  0  0  0
    7.4379    5.2983    0.0000 H   0  0  0  0  0  0  0  0  0  0  0  0
    6.3812    2.9248    0.0000 C   0  0  0  0  0  0  0  0  0  0  0  0
    7.7515    2.3147    0.0000 C   0  0  0  0  0  0  0  0  0  0  0  0
    9.1218    1.7046    0.0000 N   0  0  0  0  0  0  0  0  0  0  0  0
    5.1677    2.0431    0.0000 C   0  0  0  0  0  0  0  0  0  0  0  0
    5.3245    0.5514    0.0000 H   0  0  0  0  0  0  0  0  0  0  0  0
    3.7974    2.6533    0.0000 C   0  0  0  0  0  0  0  0  0  0  0  0
    3.6406    4.1450    0.0000 C   0  0  0  0  0  0  0  0  0  0  0  0
    2.2703    4.7551    0.0000 H   0  0  0  0  0  0  0  0  0  0  0  0
    2.5838    1.7716    0.0000 C   0  0  0  0  0  0  0  0  0  0  0  0
    1.7451    0.5280    0.0000 H   0  0  0  0  0  0  0  0  0  0  0  0
    3.6629    0.7296    0.0000 H   0  0  0  0  0  0  0  0  0  0  0  0
    1.2135    2.3817    0.0000 S   0  0  0  0  0  0  0  0  0  0  0  0
    0.0000    1.5000    0.0000 C   0  0  0  0  0  0  0  0  0  0  0  0
    0.0000    0.0000    0.0000 N   0  0  0  0  0  0  0  0  0  0  0  0
   -1.4266   -0.4635    0.0000 N   0  0  0  0  0  0  0  0  0  0  0  0
   -2.3083    0.7500    0.0000 C   0  0  0  0  0  0  0  0  0  0  0  0
   -3.8083    0.7500    0.0000 N   0  0  0  0  0  0  0  0  0  0  0  0
   -4.5583    2.0490    0.0000 H   0  0  0  0  0  0  0  0  0  0  0  0
   -4.5583   -0.5490    0.0000 C   0  0  0  0  0  0  0  0  0  0  0  0
   -4.8187   -2.0262    0.0000 H   0  0  0  0  0  0  0  0  0  0  0  0
   -3.1487   -1.0621    0.0000 H   0  0  0  0  0  0  0  0  0  0  0  0
   -6.0583   -0.5490    0.0000 C   0  0  0  0  0  0  0  0  0  0  0  0
   -5.7978    0.9282    0.0000 H   0  0  0  0  0  0  0  0  0  0  0  0
   -7.4678   -0.0360    0.0000 H   0  0  0  0  0  0  0  0  0  0  0  0
   -6.8083   -1.8481    0.0000 C   0  0  0  0  0  0  0  0  0  0  0  0
   -8.3083   -1.8481    0.0000 H   0  0  0  0  0  0  0  0  0  0  0  0
   -7.0687   -3.3253    0.0000 H   0  0  0  0  0  0  0  0  0  0  0  0
   -5.3987   -2.3611    0.0000 H   0  0  0  0  0  0  0  0  0  0  0  0
   -1.4266    1.9635    0.0000 S   0  0  0  0  0  0  0  0  0  0  0  0
  2  1  1  0  0  0  0 
  3  2  1  0  0  0  0 
  4  3  1  0  0  0  0 
  5  3  2  0  0  0  0 
  6  5  1  0  0  0  0 
  7  6  3  0  0  0  0 
  8  5  1  0  0  0  0 
  9  8  1  0  0  0  0 
 10  8  2  0  0  0  0 
 11 10  1  0  0  0  0 
 11  2  2  0  0  0  0 
 12 11  1  0  0  0  0 
 13 10  1  0  0  0  0 
 14 13  1  0  0  0  0 
 15 13  1  0  0  0  0 
 16 13  1  0  0  0  0 
 17 16  1  0  0  0  0 
 18 17  2  0  0  0  0 
 19 18  1  0  0  0  0 
 20 19  2  0  0  0  0 
 21 20  1  0  0  0  0 
 22 21  1  0  0  0  0 
 23 21  1  0  0  0  0 
 24 23  1  0  0  0  0 
 25 23  1  0  0  0  0 
 26 23  1  0  0  0  0 
 27 26  1  0  0  0  0 
 28 26  1  0  0  0  0 
 29 26  1  0  0  0  0 
 30 29  1  0  0  0  0 
 31 29  1  0  0  0  0 
 32 29  1  0  0  0  0 
 33 20  1  0  0  0  0 
 33 17  1  0  0  0  0 
M  END
> <id>
33891216

> <origin>
MetFrag

> <smiles>
[H]c1c(C#N)c([H])c(c([H])c1([H]))C([H])([H])Sc2nnc(N([H])C([H])([H])C([H])([H])C([H])([H])[H])s2

> <name>
3-[[5-(propylamino)-1,3,4-thiadiazol-2-yl]sulfanylmethyl]benzonitrile

> <peaksExplained>
1

> <tiedRank>
17

> <URL>
http://pubchem.ncbi.nlm.nih.gov/summary/summary.cgi?cid=33891216

> <newscore>
0.5058605517066788

> <clusterRank>
17

> <origscore>
0.13274999999999998

$$$$

  CDK     1213131428

 33 35  0  0  0  0  0  0  0  0999 V2000
    5.3339   -2.8358    0.0000 H   0  0  0  0  0  0  0  0  0  0  0  0
    4.3698   -1.6867    0.0000 C   0  0  0  0  0  0  0  0  0  0  0  0
    2.8925   -1.9472    0.0000 N   0  0  0  0  0  0  0  0  0  0  0  0
    1.9284   -0.7981    0.0000 C   0  0  0  0  0  0  0  0  0  0  0  0
    2.4414    0.6114    0.0000 C   0  0  0  0  0  0  0  0  0  0  0  0
    3.9186    0.8719    0.0000 N   0  0  0  0  0  0  0  0  0  0  0  0
    4.8828   -0.2772    0.0000 C   0  0  0  0  0  0  0  0  0  0  0  0
    6.3600   -0.0167    0.0000 H   0  0  0  0  0  0  0  0  0  0  0  0
    1.4772    1.7605    0.0000 N   0  0  0  0  0  0  0  0  0  0  0  0
    1.9902    3.1700    0.0000 C   0  0  0  0  0  0  0  0  0  0  0  0
    3.2893    2.4200    0.0000 H   0  0  0  0  0  0  0  0  0  0  0  0
    2.9544    4.3191    0.0000 H   0  0  0  0  0  0  0  0  0  0  0  0
    1.0261    4.3191    0.0000 C   0  0  0  0  0  0  0  0  0  0  0  0
   -0.4703    4.2144    0.0000 C   0  0  0  0  0  0  0  0  0  0  0  0
   -1.2652    2.9424    0.0000 H   0  0  0  0  0  0  0  0  0  0  0  0
   -1.0322    5.6052    0.0000 C   0  0  0  0  0  0  0  0  0  0  0  0
   -2.4876    5.9681    0.0000 H   0  0  0  0  0  0  0  0  0  0  0  0
    0.1169    6.5694    0.0000 C   0  0  0  0  0  0  0  0  0  0  0  0
    0.0122    8.0657    0.0000 H   0  0  0  0  0  0  0  0  0  0  0  0
    1.3889    5.7745    0.0000 S   0  0  0  0  0  0  0  0  0  0  0  0
    0.0000    1.5000    0.0000 C   0  0  0  0  0  0  0  0  0  0  0  0
   -0.5130    2.9095    0.0000 H   0  0  0  0  0  0  0  0  0  0  0  0
    0.0000    0.0000    0.0000 C   0  0  0  0  0  0  0  0  0  0  0  0
   -0.5130   -1.4095    0.0000 H   0  0  0  0  0  0  0  0  0  0  0  0
    1.4772   -0.2605    0.0000 H   0  0  0  0  0  0  0  0  0  0  0  0
   -1.2990    0.7500    0.0000 C   0  0  0  0  0  0  0  0  0  0  0  0
   -2.2632    1.8991    0.0000 H   0  0  0  0  0  0  0  0  0  0  0  0
   -2.2632   -0.3991    0.0000 H   0  0  0  0  0  0  0  0  0  0  0  0
    0.4512   -1.0586    0.0000 C   0  0  0  0  0  0  0  0  0  0  0  0
   -0.0619   -2.4681    0.0000 N   0  0  0  0  0  0  0  0  0  0  0  0
    0.9023   -3.6172    0.0000 H   0  0  0  0  0  0  0  0  0  0  0  0
   -1.5391   -2.7286    0.0000 H   0  0  0  0  0  0  0  0  0  0  0  0
   -0.5130    0.0905    0.0000 S   0  0  0  0  0  0  0  0  0  0  0  0
  2  1  1  0  0  0  0 
  3  2  1  0  0  0  0 
  4  3  2  0  0  0  0 
  5  4  1  0  0  0  0 
  6  5  2  0  0  0  0 
  7  6  1  0  0  0  0 
  7  2  2  0  0  0  0 
  8  7  1  0  0  0  0 
  9  5  1  0  0  0  0 
 10  9  1  0  0  0  0 
 11 10  1  0  0  0  0 
 12 10  1  0  0  0  0 
 13 10  1  0  0  0  0 
 14 13  2  0  0  0  0 
 15 14  1  0  0  0  0 
 16 14  1  0  0  0  0 
 17 16  1  0  0  0  0 
 18 16  2  0  0  0  0 
 19 18  1  0  0  0  0 
 20 18  1  0  0  0  0 
 20 13  1  0  0  0  0 
 21  9  1  0  0  0  0 
 22 21  1  0  0  0  0 
 23 21  1  0  0  0  0 
 24 23  1  0  0  0  0 
 25 23  1  0  0  0  0 
 26 23  1  0  0  0  0 
 26 21  1  0  0  0  0 
 27 26  1  0  0  0  0 
 28 26  1  0  0  0  0 
 29  4  1  0  0  0  0 
 30 29  1  0  0  0  0 
 31 30  1  0  0  0  0 
 32 30  1  0  0  0  0 
 33 29  2  0  0  0  0 
M  END
> <id>
55103140

> <origin>
MetFrag

> <smiles>
[H]c1nc(c(nc1([H]))N(C([H])([H])c2c([H])c([H])c([H])s2)C3([H])(C([H])([H])C3([H])([H])))C(N([H])[H])=S

> <name>
55103140

> <peaksExplained>
1

> <tiedRank>
18

> <URL>
http://pubchem.ncbi.nlm.nih.gov/summary/summary.cgi?cid=55103140

> <newscore>
0.5057068805093661

> <clusterRank>
18

> <origscore>
0.11624999999999999

$$$$

  CDK     1213131428

 36 37  0  0  0  0  0  0  0  0999 V2000
    1.2990    2.2500    0.0000 H   0  0  0  0  0  0  0  0  0  0  0  0
    0.0000    1.5000    0.0000 C   0  0  0  0  0  0  0  0  0  0  0  0
    0.0000    0.0000    0.0000 O   0  0  0  0  0  0  0  0  0  0  0  0
   -1.2990   -0.7500    0.0000 C   0  0  0  0  0  0  0  0  0  0  0  0
   -2.2632   -1.8991    0.0000 H   0  0  0  0  0  0  0  0  0  0  0  0
   -2.5981   -0.0000    0.0000 C   0  0  0  0  0  0  0  0  0  0  0  0
   -4.0753    0.2605    0.0000 H   0  0  0  0  0  0  0  0  0  0  0  0
   -3.1111   -1.4095    0.0000 H   0  0  0  0  0  0  0  0  0  0  0  0
   -2.5981    1.5000    0.0000 C   0  0  0  0  0  0  0  0  0  0  0  0
   -3.1111    2.9095    0.0000 H   0  0  0  0  0  0  0  0  0  0  0  0
   -4.0753    1.2395    0.0000 O   0  0  0  0  0  0  0  0  0  0  0  0
   -5.0395    2.3886    0.0000 C   0  0  0  0  0  0  0  0  0  0  0  0
   -4.5264    3.7981    0.0000 O   0  0  0  0  0  0  0  0  0  0  0  0
   -6.5167    2.1281    0.0000 C   0  0  0  0  0  0  0  0  0  0  0  0
   -7.4809    3.2772    0.0000 H   0  0  0  0  0  0  0  0  0  0  0  0
   -7.8157    1.3781    0.0000 H   0  0  0  0  0  0  0  0  0  0  0  0
   -6.0037    0.7186    0.0000 H   0  0  0  0  0  0  0  0  0  0  0  0
   -1.2990    2.2500    0.0000 C   0  0  0  0  0  0  0  0  0  0  0  0
   -1.2990    3.7500    0.0000 H   0  0  0  0  0  0  0  0  0  0  0  0
   -0.3349   -1.8991    0.0000 C   0  0  0  0  0  0  0  0  0  0  0  0
   -1.6339   -2.6491    0.0000 C   0  0  0  0  0  0  0  0  0  0  0  0
   -1.6339   -4.1491    0.0000 H   0  0  0  0  0  0  0  0  0  0  0  0
   -2.1469   -1.2395    0.0000 H   0  0  0  0  0  0  0  0  0  0  0  0
   -3.1111   -2.9095    0.0000 H   0  0  0  0  0  0  0  0  0  0  0  0
    0.6293   -0.7500    0.0000 S   0  0  0  0  0  0  0  0  0  0  0  0
    2.1065   -1.0105    0.0000 C   0  0  0  0  0  0  0  0  0  0  0  0
    3.5837   -0.7500    0.0000 H   0  0  0  0  0  0  0  0  0  0  0  0
    2.1065    0.4895    0.0000 H   0  0  0  0  0  0  0  0  0  0  0  0
    2.6196   -2.4200    0.0000 C   0  0  0  0  0  0  0  0  0  0  0  0
    3.5837   -3.5691    0.0000 H   0  0  0  0  0  0  0  0  0  0  0  0
    3.9186   -1.6700    0.0000 H   0  0  0  0  0  0  0  0  0  0  0  0
    1.6554   -3.5691    0.0000 C   0  0  0  0  0  0  0  0  0  0  0  0
    1.1424   -4.9786    0.0000 H   0  0  0  0  0  0  0  0  0  0  0  0
    2.9544   -4.3191    0.0000 H   0  0  0  0  0  0  0  0  0  0  0  0
    0.1782   -3.3086    0.0000 S   0  0  0  0  0  0  0  0  0  0  0  0
   -0.7860   -4.4577    0.0000 O   0  0  0  0  0  0  0  0  0  0  0  0
  2  1  1  0  0  0  0 
  3  2  1  0  0  0  0 
  4  3  1  0  0  0  0 
  5  4  1  0  0  0  0 
  6  4  1  0  0  0  0 
  7  6  1  0  0  0  0 
  8  6  1  0  0  0  0 
  9  6  1  0  0  0  0 
 10  9  1  0  0  0  0 
 11  9  1  0  0  0  0 
 12 11  1  0  0  0  0 
 13 12  2  0  0  0  0 
 14 12  1  0  0  0  0 
 15 14  1  0  0  0  0 
 16 14  1  0  0  0  0 
 17 14  1  0  0  0  0 
 18  9  1  0  0  0  0 
 18  2  2  0  0  0  0 
 19 18  1  0  0  0  0 
 20  4  1  0  0  0  0 
 21 20  1  0  0  0  0 
 22 21  1  0  0  0  0 
 23 21  1  0  0  0  0 
 24 21  1  0  0  0  0 
 25 20  1  0  0  0  0 
 26 25  1  0  0  0  0 
 27 26  1  0  0  0  0 
 28 26  1  0  0  0  0 
 29 26  1  0  0  0  0 
 30 29  1  0  0  0  0 
 31 29  1  0  0  0  0 
 32 29  1  0  0  0  0 
 33 32  1  0  0  0  0 
 34 32  1  0  0  0  0 
 35 32  1  0  0  0  0 
 35 20  1  0  0  0  0 
 36 35  2  0  0  0  0 
M  END
> <id>
11066206

> <origin>
MetFrag

> <smiles>
[H]C=1OC([H])(C([H])([H])C([H])(OC(=O)C([H])([H])[H])C=1([H]))C2(C([H])([H])[H])(SC([H])([H])C([H])([H])C([H])([H])S2(=O))

> <name>
[(2R,4R)-2-[(1R,2S)-2-methyl-1-oxo-1,3-dithian-2-yl]-3,4-dihydro-2H-pyran-4-yl] acetate

> <peaksExplained>
1

> <tiedRank>
19

> <URL>
http://pubchem.ncbi.nlm.nih.gov/summary/summary.cgi?cid=11066206

> <newscore>
0.5056248690895934

> <clusterRank>
19

> <origscore>
0.0685

$$$$

  CDK     1213131428

 33 34  0  0  0  0  0  0  0  0999 V2000
    7.4379    5.2983    0.0000 H   0  0  0  0  0  0  0  0  0  0  0  0
    6.2244    4.4166    0.0000 C   0  0  0  0  0  0  0  0  0  0  0  0
    6.3812    2.9248    0.0000 C   0  0  0  0  0  0  0  0  0  0  0  0
    7.7515    2.3147    0.0000 H   0  0  0  0  0  0  0  0  0  0  0  0
    5.1677    2.0431    0.0000 C   0  0  0  0  0  0  0  0  0  0  0  0
    5.3245    0.5514    0.0000 H   0  0  0  0  0  0  0  0  0  0  0  0
    3.7974    2.6533    0.0000 C   0  0  0  0  0  0  0  0  0  0  0  0
    3.6406    4.1450    0.0000 C   0  0  0  0  0  0  0  0  0  0  0  0
    2.2703    4.7551    0.0000 C   0  0  0  0  0  0  0  0  0  0  0  0
    0.8999    5.3652    0.0000 N   0  0  0  0  0  0  0  0  0  0  0  0
    4.8541    5.0267    0.0000 C   0  0  0  0  0  0  0  0  0  0  0  0
    4.6973    6.5185    0.0000 H   0  0  0  0  0  0  0  0  0  0  0  0
    2.5838    1.7716    0.0000 C   0  0  0  0  0  0  0  0  0  0  0  0
    1.7451    0.5280    0.0000 H   0  0  0  0  0  0  0  0  0  0  0  0
    3.6629    0.7296    0.0000 H   0  0  0  0  0  0  0  0  0  0  0  0
    1.2135    2.3817    0.0000 S   0  0  0  0  0  0  0  0  0  0  0  0
    0.0000    1.5000    0.0000 C   0  0  0  0  0  0  0  0  0  0  0  0
    0.0000    0.0000    0.0000 N   0  0  0  0  0  0  0  0  0  0  0  0
   -1.4266   -0.4635    0.0000 N   0  0  0  0  0  0  0  0  0  0  0  0
   -2.3083    0.7500    0.0000 C   0  0  0  0  0  0  0  0  0  0  0  0
   -3.8083    0.7500    0.0000 N   0  0  0  0  0  0  0  0  0  0  0  0
   -4.5583    2.0490    0.0000 H   0  0  0  0  0  0  0  0  0  0  0  0
   -4.5583   -0.5490    0.0000 C   0  0  0  0  0  0  0  0  0  0  0  0
   -4.8187   -2.0262    0.0000 H   0  0  0  0  0  0  0  0  0  0  0  0
   -6.0583   -0.5490    0.0000 C   0  0  0  0  0  0  0  0  0  0  0  0
   -6.8083   -1.8481    0.0000 H   0  0  0  0  0  0  0  0  0  0  0  0
   -5.7978    0.9282    0.0000 H   0  0  0  0  0  0  0  0  0  0  0  0
   -7.4678   -0.0360    0.0000 H   0  0  0  0  0  0  0  0  0  0  0  0
   -3.1487   -1.0621    0.0000 C   0  0  0  0  0  0  0  0  0  0  0  0
   -2.8883   -2.5393    0.0000 H   0  0  0  0  0  0  0  0  0  0  0  0
   -1.6487   -1.0621    0.0000 H   0  0  0  0  0  0  0  0  0  0  0  0
   -2.8883    0.4151    0.0000 H   0  0  0  0  0  0  0  0  0  0  0  0
   -1.4266    1.9635    0.0000 S   0  0  0  0  0  0  0  0  0  0  0  0
  2  1  1  0  0  0  0 
  3  2  2  0  0  0  0 
  4  3  1  0  0  0  0 
  5  3  1  0  0  0  0 
  6  5  1  0  0  0  0 
  7  5  2  0  0  0  0 
  8  7  1  0  0  0  0 
  9  8  1  0  0  0  0 
 10  9  3  0  0  0  0 
 11  8  2  0  0  0  0 
 11  2  1  0  0  0  0 
 12 11  1  0  0  0  0 
 13  7  1  0  0  0  0 
 14 13  1  0  0  0  0 
 15 13  1  0  0  0  0 
 16 13  1  0  0  0  0 
 17 16  1  0  0  0  0 
 18 17  2  0  0  0  0 
 19 18  1  0  0  0  0 
 20 19  2  0  0  0  0 
 21 20  1  0  0  0  0 
 22 21  1  0  0  0  0 
 23 21  1  0  0  0  0 
 24 23  1  0  0  0  0 
 25 23  1  0  0  0  0 
 26 25  1  0  0  0  0 
 27 25  1  0  0  0  0 
 28 25  1  0  0  0  0 
 29 23  1  0  0  0  0 
 30 29  1  0  0  0  0 
 31 29  1  0  0  0  0 
 32 29  1  0  0  0  0 
 33 20  1  0  0  0  0 
 33 17  1  0  0  0  0 
M  END
> <id>
8151224

> <origin>
MetFrag

> <smiles>
[H]c1c(C#N)c(c([H])c([H])c1([H]))C([H])([H])Sc2nnc(N([H])C([H])(C([H])([H])[H])C([H])([H])[H])s2

> <name>
2-[[5-(propan-2-ylamino)-1,3,4-thiadiazol-2-yl]sulfanylmethyl]benzonitrile

> <peaksExplained>
1

> <tiedRank>
20

> <URL>
http://pubchem.ncbi.nlm.nih.gov/summary/summary.cgi?cid=8151224

> <newscore>
0.5051049205152135

> <clusterRank>
20

> <origscore>
0.13274999999999998

$$$$

  CDK     1213131428

 33 34  0  0  0  0  0  0  0  0999 V2000
    7.7515    2.3147    0.0000 H   0  0  0  0  0  0  0  0  0  0  0  0
    6.3812    2.9248    0.0000 C   0  0  0  0  0  0  0  0  0  0  0  0
    5.1677    2.0431    0.0000 C   0  0  0  0  0  0  0  0  0  0  0  0
    5.3245    0.5514    0.0000 H   0  0  0  0  0  0  0  0  0  0  0  0
    3.7974    2.6533    0.0000 C   0  0  0  0  0  0  0  0  0  0  0  0
    3.6406    4.1450    0.0000 C   0  0  0  0  0  0  0  0  0  0  0  0
    2.2703    4.7551    0.0000 H   0  0  0  0  0  0  0  0  0  0  0  0
    4.8541    5.0267    0.0000 C   0  0  0  0  0  0  0  0  0  0  0  0
    4.6973    6.5185    0.0000 H   0  0  0  0  0  0  0  0  0  0  0  0
    6.2244    4.4166    0.0000 C   0  0  0  0  0  0  0  0  0  0  0  0
    7.4379    5.2983    0.0000 C   0  0  0  0  0  0  0  0  0  0  0  0
    8.6515    6.1800    0.0000 N   0  0  0  0  0  0  0  0  0  0  0  0
    2.5838    1.7716    0.0000 C   0  0  0  0  0  0  0  0  0  0  0  0
    1.7451    0.5280    0.0000 H   0  0  0  0  0  0  0  0  0  0  0  0
    3.6629    0.7296    0.0000 H   0  0  0  0  0  0  0  0  0  0  0  0
    1.2135    2.3817    0.0000 S   0  0  0  0  0  0  0  0  0  0  0  0
    0.0000    1.5000    0.0000 C   0  0  0  0  0  0  0  0  0  0  0  0
    0.0000    0.0000    0.0000 N   0  0  0  0  0  0  0  0  0  0  0  0
   -1.4266   -0.4635    0.0000 N   0  0  0  0  0  0  0  0  0  0  0  0
   -2.3083    0.7500    0.0000 C   0  0  0  0  0  0  0  0  0  0  0  0
   -3.8083    0.7500    0.0000 N   0  0  0  0  0  0  0  0  0  0  0  0
   -4.5583    2.0490    0.0000 H   0  0  0  0  0  0  0  0  0  0  0  0
   -4.5583   -0.5490    0.0000 C   0  0  0  0  0  0  0  0  0  0  0  0
   -4.8187   -2.0262    0.0000 H   0  0  0  0  0  0  0  0  0  0  0  0
   -3.1487   -1.0621    0.0000 H   0  0  0  0  0  0  0  0  0  0  0  0
   -6.0583   -0.5490    0.0000 C   0  0  0  0  0  0  0  0  0  0  0  0
   -5.7978    0.9282    0.0000 H   0  0  0  0  0  0  0  0  0  0  0  0
   -7.4678   -0.0360    0.0000 H   0  0  0  0  0  0  0  0  0  0  0  0
   -6.8083   -1.8481    0.0000 C   0  0  0  0  0  0  0  0  0  0  0  0
   -8.3083   -1.8481    0.0000 H   0  0  0  0  0  0  0  0  0  0  0  0
   -7.0687   -3.3253    0.0000 H   0  0  0  0  0  0  0  0  0  0  0  0
   -5.3987   -2.3611    0.0000 H   0  0  0  0  0  0  0  0  0  0  0  0
   -1.4266    1.9635    0.0000 S   0  0  0  0  0  0  0  0  0  0  0  0
  2  1  1  0  0  0  0 
  3  2  1  0  0  0  0 
  4  3  1  0  0  0  0 
  5  3  2  0  0  0  0 
  6  5  1  0  0  0  0 
  7  6  1  0  0  0  0 
  8  6  2  0  0  0  0 
  9  8  1  0  0  0  0 
 10  8  1  0  0  0  0 
 10  2  2  0  0  0  0 
 11 10  1  0  0  0  0 
 12 11  3  0  0  0  0 
 13  5  1  0  0  0  0 
 14 13  1  0  0  0  0 
 15 13  1  0  0  0  0 
 16 13  1  0  0  0  0 
 17 16  1  0  0  0  0 
 18 17  2  0  0  0  0 
 19 18  1  0  0  0  0 
 20 19  2  0  0  0  0 
 21 20  1  0  0  0  0 
 22 21  1  0  0  0  0 
 23 21  1  0  0  0  0 
 24 23  1  0  0  0  0 
 25 23  1  0  0  0  0 
 26 23  1  0  0  0  0 
 27 26  1  0  0  0  0 
 28 26  1  0  0  0  0 
 29 26  1  0  0  0  0 
 30 29  1  0  0  0  0 
 31 29  1  0  0  0  0 
 32 29  1  0  0  0  0 
 33 20  1  0  0  0  0 
 33 17  1  0  0  0  0 
M  END
> <id>
8909807

> <origin>
MetFrag

> <smiles>
[H]c1c(C#N)c([H])c([H])c(c1([H]))C([H])([H])Sc2nnc(N([H])C([H])([H])C([H])([H])C([H])([H])[H])s2

> <name>
4-[[5-(propylamino)-1,3,4-thiadiazol-2-yl]sulfanylmethyl]benzonitrile

> <peaksExplained>
1

> <tiedRank>
21

> <URL>
http://pubchem.ncbi.nlm.nih.gov/summary/summary.cgi?cid=8909807

> <newscore>
0.5049769049533605

> <clusterRank>
21

> <origscore>
0.13274999999999998

$$$$

  CDK     1213131428

 33 35  0  0  0  0  0  0  0  0999 V2000
    7.5067    5.4354    0.0000 H   0  0  0  0  0  0  0  0  0  0  0  0
    7.6113    3.9391    0.0000 C   0  0  0  0  0  0  0  0  0  0  0  0
    8.9595    3.2815    0.0000 C   0  0  0  0  0  0  0  0  0  0  0  0
   10.2031    4.1203    0.0000 H   0  0  0  0  0  0  0  0  0  0  0  0
    9.0641    1.7852    0.0000 C   0  0  0  0  0  0  0  0  0  0  0  0
    7.8206    0.9464    0.0000 N   0  0  0  0  0  0  0  0  0  0  0  0
    6.4724    1.6039    0.0000 C   0  0  0  0  0  0  0  0  0  0  0  0
    6.3678    3.1003    0.0000 C   0  0  0  0  0  0  0  0  0  0  0  0
    5.0196    3.7578    0.0000 C   0  0  0  0  0  0  0  0  0  0  0  0
    4.9149    5.2542    0.0000 N   0  0  0  0  0  0  0  0  0  0  0  0
    6.1585    6.0930    0.0000 H   0  0  0  0  0  0  0  0  0  0  0  0
    3.5667    5.9117    0.0000 H   0  0  0  0  0  0  0  0  0  0  0  0
    3.7760    2.9190    0.0000 S   0  0  0  0  0  0  0  0  0  0  0  0
    5.2288    0.7651    0.0000 N   0  0  0  0  0  0  0  0  0  0  0  0
    5.3335   -0.7312    0.0000 H   0  0  0  0  0  0  0  0  0  0  0  0
    3.8806    1.4227    0.0000 C   0  0  0  0  0  0  0  0  0  0  0  0
    2.5562    0.7185    0.0000 N   0  0  0  0  0  0  0  0  0  0  0  0
    1.4772    1.7605    0.0000 C   0  0  0  0  0  0  0  0  0  0  0  0
    2.1348    3.1087    0.0000 C   0  0  0  0  0  0  0  0  0  0  0  0
    1.4306    4.4331    0.0000 H   0  0  0  0  0  0  0  0  0  0  0  0
    3.6202    2.8999    0.0000 S   0  0  0  0  0  0  0  0  0  0  0  0
    0.0000    1.5000    0.0000 C   0  0  0  0  0  0  0  0  0  0  0  0
   -0.5130    2.9095    0.0000 H   0  0  0  0  0  0  0  0  0  0  0  0
    0.0000    0.0000    0.0000 C   0  0  0  0  0  0  0  0  0  0  0  0
   -0.5130   -1.4095    0.0000 H   0  0  0  0  0  0  0  0  0  0  0  0
    1.4772   -0.2605    0.0000 H   0  0  0  0  0  0  0  0  0  0  0  0
   -1.2990    0.7500    0.0000 C   0  0  0  0  0  0  0  0  0  0  0  0
   -2.2632    1.8991    0.0000 H   0  0  0  0  0  0  0  0  0  0  0  0
   -2.2632   -0.3991    0.0000 H   0  0  0  0  0  0  0  0  0  0  0  0
   10.4123    1.1276    0.0000 C   0  0  0  0  0  0  0  0  0  0  0  0
   11.6559    1.9664    0.0000 H   0  0  0  0  0  0  0  0  0  0  0  0
    9.5307   -0.0859    0.0000 H   0  0  0  0  0  0  0  0  0  0  0  0
   11.4543    0.0486    0.0000 H   0  0  0  0  0  0  0  0  0  0  0  0
  2  1  1  0  0  0  0 
  3  2  2  0  0  0  0 
  4  3  1  0  0  0  0 
  5  3  1  0  0  0  0 
  6  5  2  0  0  0  0 
  7  6  1  0  0  0  0 
  8  7  2  0  0  0  0 
  8  2  1  0  0  0  0 
  9  8  1  0  0  0  0 
 10  9  1  0  0  0  0 
 11 10  1  0  0  0  0 
 12 10  1  0  0  0  0 
 13  9  2  0  0  0  0 
 14  7  1  0  0  0  0 
 15 14  1  0  0  0  0 
 16 14  1  0  0  0  0 
 17 16  2  0  0  0  0 
 18 17  1  0  0  0  0 
 19 18  2  0  0  0  0 
 20 19  1  0  0  0  0 
 21 19  1  0  0  0  0 
 21 16  1  0  0  0  0 
 22 18  1  0  0  0  0 
 23 22  1  0  0  0  0 
 24 22  1  0  0  0  0 
 25 24  1  0  0  0  0 
 26 24  1  0  0  0  0 
 27 24  1  0  0  0  0 
 27 22  1  0  0  0  0 
 28 27  1  0  0  0  0 
 29 27  1  0  0  0  0 
 30  5  1  0  0  0  0 
 31 30  1  0  0  0  0 
 32 30  1  0  0  0  0 
 33 30  1  0  0  0  0 
M  END
> <id>
61655577

> <origin>
MetFrag

> <smiles>
[H]c2c(nc(N([H])c1nc(c([H])c([H])c1C(N([H])[H])=S)C([H])([H])[H])s2)C3([H])(C([H])([H])C3([H])([H]))

> <name>
61655577

> <peaksExplained>
1

> <tiedRank>
22

> <URL>
http://pubchem.ncbi.nlm.nih.gov/summary/summary.cgi?cid=61655577

> <newscore>
0.504965691314325

> <clusterRank>
22

> <origscore>
0.10525

$$$$

  CDK     1213131428

 33 36  0  0  0  0  0  0  0  0999 V2000
    1.2546    5.1731    0.0000 H   0  0  0  0  0  0  0  0  0  0  0  0
    0.5046    3.8740    0.0000 N   0  0  0  0  0  0  0  0  0  0  0  0
    1.1147    2.5037    0.0000 N   0  0  0  0  0  0  0  0  0  0  0  0
    0.0000    1.5000    0.0000 C   0  0  0  0  0  0  0  0  0  0  0  0
    0.0000    0.0000    0.0000 C   0  0  0  0  0  0  0  0  0  0  0  0
   -1.2990   -0.7500    0.0000 C   0  0  0  0  0  0  0  0  0  0  0  0
   -2.5981   -0.0000    0.0000 N   0  0  0  0  0  0  0  0  0  0  0  0
   -2.5981    1.5000    0.0000 C   0  0  0  0  0  0  0  0  0  0  0  0
   -1.2990    2.2500    0.0000 N   0  0  0  0  0  0  0  0  0  0  0  0
   -0.9872    3.7172    0.0000 C   0  0  0  0  0  0  0  0  0  0  0  0
   -1.9909    4.8319    0.0000 S   0  0  0  0  0  0  0  0  0  0  0  0
   -3.8971    2.2500    0.0000 C   0  0  0  0  0  0  0  0  0  0  0  0
   -2.9329    3.3991    0.0000 H   0  0  0  0  0  0  0  0  0  0  0  0
   -4.8613    3.3991    0.0000 H   0  0  0  0  0  0  0  0  0  0  0  0
   -5.1962    1.5000    0.0000 C   0  0  0  0  0  0  0  0  0  0  0  0
   -6.4952    2.2500    0.0000 H   0  0  0  0  0  0  0  0  0  0  0  0
   -6.1603    0.3509    0.0000 H   0  0  0  0  0  0  0  0  0  0  0  0
   -4.2320    0.3509    0.0000 H   0  0  0  0  0  0  0  0  0  0  0  0
   -0.9872   -2.2172    0.0000 S   0  0  0  0  0  0  0  0  0  0  0  0
    0.5046   -2.3740    0.0000 C   0  0  0  0  0  0  0  0  0  0  0  0
    1.1147   -1.0037    0.0000 C   0  0  0  0  0  0  0  0  0  0  0  0
    2.6065   -0.8469    0.0000 C   0  0  0  0  0  0  0  0  0  0  0  0
    3.9547   -0.1893    0.0000 H   0  0  0  0  0  0  0  0  0  0  0  0
    2.1930    0.5950    0.0000 H   0  0  0  0  0  0  0  0  0  0  0  0
    3.4882   -2.0604    0.0000 C   0  0  0  0  0  0  0  0  0  0  0  0
    4.7317   -2.8992    0.0000 H   0  0  0  0  0  0  0  0  0  0  0  0
    4.5302   -0.9814    0.0000 H   0  0  0  0  0  0  0  0  0  0  0  0
    2.8781   -3.4307    0.0000 C   0  0  0  0  0  0  0  0  0  0  0  0
    2.7734   -4.9271    0.0000 H   0  0  0  0  0  0  0  0  0  0  0  0
    4.3335   -3.7936    0.0000 H   0  0  0  0  0  0  0  0  0  0  0  0
    1.3863   -3.5875    0.0000 C   0  0  0  0  0  0  0  0  0  0  0  0
    0.0381   -4.2451    0.0000 H   0  0  0  0  0  0  0  0  0  0  0  0
    1.7997   -5.0294    0.0000 H   0  0  0  0  0  0  0  0  0  0  0  0
  2  1  1  0  0  0  0 
  3  2  1  0  0  0  0 
  4  3  2  0  0  0  0 
  5  4  1  0  0  0  0 
  6  5  2  0  0  0  0 
  7  6  1  0  0  0  0 
  8  7  2  0  0  0  0 
  9  8  1  0  0  0  0 
  9  4  1  0  0  0  0 
 10  9  1  0  0  0  0 
 10  2  1  0  0  0  0 
 11 10  2  0  0  0  0 
 12  8  1  0  0  0  0 
 13 12  1  0  0  0  0 
 14 12  1  0  0  0  0 
 15 12  1  0  0  0  0 
 16 15  1  0  0  0  0 
 17 15  1  0  0  0  0 
 18 15  1  0  0  0  0 
 19  6  1  0  0  0  0 
 20 19  1  0  0  0  0 
 21 20  2  0  0  0  0 
 21  5  1  0  0  0  0 
 22 21  1  0  0  0  0 
 23 22  1  0  0  0  0 
 24 22  1  0  0  0  0 
 25 22  1  0  0  0  0 
 26 25  1  0  0  0  0 
 27 25  1  0  0  0  0 
 28 25  1  0  0  0  0 
 29 28  1  0  0  0  0 
 30 28  1  0  0  0  0 
 31 28  1  0  0  0  0 
 31 20  1  0  0  0  0 
 32 31  1  0  0  0  0 
 33 31  1  0  0  0  0 
M  END
> <id>
768383

> <origin>
MetFrag

> <smiles>
[H]N2N=C1c3c(N=C(N1C2=S)C([H])([H])C([H])([H])[H])sc4c3C([H])([H])C([H])([H])C([H])([H])C4([H])([H])

> <name>
STOCK3S-28874

> <peaksExplained>
1

> <tiedRank>
23

> <URL>
http://pubchem.ncbi.nlm.nih.gov/summary/summary.cgi?cid=768383

> <newscore>
0.5049269621247007

> <clusterRank>
23

> <origscore>
0.026499999999999982

$$$$

  CDK     1213131428

 33 35  0  0  0  0  0  0  0  0999 V2000
   -1.6126    4.0134    0.0000 H   0  0  0  0  0  0  0  0  0  0  0  0
   -0.2423    4.6235    0.0000 C   0  0  0  0  0  0  0  0  0  0  0  0
    0.0696    6.0907    0.0000 N   0  0  0  0  0  0  0  0  0  0  0  0
    1.5613    6.2475    0.0000 C   0  0  0  0  0  0  0  0  0  0  0  0
    2.1715    4.8772    0.0000 N   0  0  0  0  0  0  0  0  0  0  0  0
    1.0567    3.8735    0.0000 N   0  0  0  0  0  0  0  0  0  0  0  0
    1.2135    2.3817    0.0000 S   0  0  0  0  0  0  0  0  0  0  0  0
    0.0000    1.5000    0.0000 C   0  0  0  0  0  0  0  0  0  0  0  0
    0.0000    0.0000    0.0000 N   0  0  0  0  0  0  0  0  0  0  0  0
   -1.4266   -0.4635    0.0000 C   0  0  0  0  0  0  0  0  0  0  0  0
   -2.0367   -1.8338    0.0000 C   0  0  0  0  0  0  0  0  0  0  0  0
   -1.1550   -3.0474    0.0000 H   0  0  0  0  0  0  0  0  0  0  0  0
   -3.5285   -1.9906    0.0000 C   0  0  0  0  0  0  0  0  0  0  0  0
   -4.1386   -3.3610    0.0000 H   0  0  0  0  0  0  0  0  0  0  0  0
   -4.4102   -0.7771    0.0000 C   0  0  0  0  0  0  0  0  0  0  0  0
   -5.9019   -0.9339    0.0000 H   0  0  0  0  0  0  0  0  0  0  0  0
   -3.8000    0.5932    0.0000 C   0  0  0  0  0  0  0  0  0  0  0  0
   -4.6817    1.8067    0.0000 H   0  0  0  0  0  0  0  0  0  0  0  0
   -2.3083    0.7500    0.0000 C   0  0  0  0  0  0  0  0  0  0  0  0
   -1.4266    1.9635    0.0000 S   0  0  0  0  0  0  0  0  0  0  0  0
    2.3113    7.5465    0.0000 C   0  0  0  0  0  0  0  0  0  0  0  0
    2.5718    9.0237    0.0000 H   0  0  0  0  0  0  0  0  0  0  0  0
    0.9018    8.0595    0.0000 H   0  0  0  0  0  0  0  0  0  0  0  0
    3.8113    7.5465    0.0000 C   0  0  0  0  0  0  0  0  0  0  0  0
    3.5509    6.0693    0.0000 H   0  0  0  0  0  0  0  0  0  0  0  0
    5.2209    7.0335    0.0000 H   0  0  0  0  0  0  0  0  0  0  0  0
    4.5613    8.8456    0.0000 C   0  0  0  0  0  0  0  0  0  0  0  0
    4.8218   10.3228    0.0000 H   0  0  0  0  0  0  0  0  0  0  0  0
    3.1518    9.3586    0.0000 H   0  0  0  0  0  0  0  0  0  0  0  0
    6.0613    8.8456    0.0000 C   0  0  0  0  0  0  0  0  0  0  0  0
    6.8113   10.1446    0.0000 H   0  0  0  0  0  0  0  0  0  0  0  0
    5.8009    7.3683    0.0000 H   0  0  0  0  0  0  0  0  0  0  0  0
    7.4709    8.3325    0.0000 H   0  0  0  0  0  0  0  0  0  0  0  0
  2  1  1  0  0  0  0 
  3  2  2  0  0  0  0 
  4  3  1  0  0  0  0 
  5  4  2  0  0  0  0 
  6  5  1  0  0  0  0 
  6  2  1  0  0  0  0 
  7  6  1  0  0  0  0 
  8  7  1  0  0  0  0 
  9  8  2  0  0  0  0 
 10  9  1  0  0  0  0 
 11 10  2  0  0  0  0 
 12 11  1  0  0  0  0 
 13 11  1  0  0  0  0 
 14 13  1  0  0  0  0 
 15 13  2  0  0  0  0 
 16 15  1  0  0  0  0 
 17 15  1  0  0  0  0 
 18 17  1  0  0  0  0 
 19 17  2  0  0  0  0 
 19 10  1  0  0  0  0 
 20 19  1  0  0  0  0 
 20  8  1  0  0  0  0 
 21  4  1  0  0  0  0 
 22 21  1  0  0  0  0 
 23 21  1  0  0  0  0 
 24 21  1  0  0  0  0 
 25 24  1  0  0  0  0 
 26 24  1  0  0  0  0 
 27 24  1  0  0  0  0 
 28 27  1  0  0  0  0 
 29 27  1  0  0  0  0 
 30 27  1  0  0  0  0 
 31 30  1  0  0  0  0 
 32 30  1  0  0  0  0 
 33 30  1  0  0  0  0 
M  END
> <id>
18707948

> <origin>
MetFrag

> <smiles>
[H]c1nc(nn1Sc3nc2c(c([H])c([H])c([H])c2([H]))s3)C([H])([H])C([H])([H])C([H])([H])C([H])([H])[H]

> <name>
2-[(3-butyl-1,2,4-triazol-1-yl)sulfanyl]-1,3-benzothiazole

> <peaksExplained>
1

> <tiedRank>
24

> <URL>
http://pubchem.ncbi.nlm.nih.gov/summary/summary.cgi?cid=18707948

> <newscore>
0.5047218489752054

> <clusterRank>
24

> <origscore>
0.12175

$$$$

  CDK     1213131428

 33 36  0  0  0  0  0  0  0  0999 V2000
    3.1036    8.1988    0.0000 H   0  0  0  0  0  0  0  0  0  0  0  0
    1.8901    7.3172    0.0000 C   0  0  0  0  0  0  0  0  0  0  0  0
    1.8901    5.8172    0.0000 C   0  0  0  0  0  0  0  0  0  0  0  0
    3.1036    4.9355    0.0000 H   0  0  0  0  0  0  0  0  0  0  0  0
    0.4635    5.3536    0.0000 C   0  0  0  0  0  0  0  0  0  0  0  0
    0.0000    3.9271    0.0000 C   0  0  0  0  0  0  0  0  0  0  0  0
    0.8817    2.7135    0.0000 N   0  0  0  0  0  0  0  0  0  0  0  0
    0.0000    1.5000    0.0000 N   0  0  0  0  0  0  0  0  0  0  0  0
    0.0000    0.0000    0.0000 C   0  0  0  0  0  0  0  0  0  0  0  0
   -1.4266   -0.4635    0.0000 N   0  0  0  0  0  0  0  0  0  0  0  0
   -2.3083    0.7500    0.0000 N   0  0  0  0  0  0  0  0  0  0  0  0
   -1.4266    1.9635    0.0000 C   0  0  0  0  0  0  0  0  0  0  0  0
   -1.4266    3.4635    0.0000 S   0  0  0  0  0  0  0  0  0  0  0  0
    1.2135   -0.8817    0.0000 C   0  0  0  0  0  0  0  0  0  0  0  0
    0.1345   -1.9237    0.0000 H   0  0  0  0  0  0  0  0  0  0  0  0
    1.8711    0.4665    0.0000 C   0  0  0  0  0  0  0  0  0  0  0  0
    2.0279    1.9583    0.0000 H   0  0  0  0  0  0  0  0  0  0  0  0
    0.4292    0.8800    0.0000 H   0  0  0  0  0  0  0  0  0  0  0  0
    3.3674    0.5711    0.0000 C   0  0  0  0  0  0  0  0  0  0  0  0
    4.7377    1.1813    0.0000 H   0  0  0  0  0  0  0  0  0  0  0  0
    3.0045    2.0266    0.0000 H   0  0  0  0  0  0  0  0  0  0  0  0
    4.2062   -0.6724    0.0000 C   0  0  0  0  0  0  0  0  0  0  0  0
    5.4197   -1.5541    0.0000 H   0  0  0  0  0  0  0  0  0  0  0  0
    5.2852    0.3696    0.0000 H   0  0  0  0  0  0  0  0  0  0  0  0
    3.5487   -2.0206    0.0000 C   0  0  0  0  0  0  0  0  0  0  0  0
    3.3919   -3.5124    0.0000 H   0  0  0  0  0  0  0  0  0  0  0  0
    4.9906   -2.4341    0.0000 H   0  0  0  0  0  0  0  0  0  0  0  0
    2.0523   -2.1252    0.0000 C   0  0  0  0  0  0  0  0  0  0  0  0
    0.6820   -2.7353    0.0000 H   0  0  0  0  0  0  0  0  0  0  0  0
    2.4152   -3.5807    0.0000 H   0  0  0  0  0  0  0  0  0  0  0  0
   -0.4182    6.5672    0.0000 S   0  0  0  0  0  0  0  0  0  0  0  0
    0.4635    7.7807    0.0000 C   0  0  0  0  0  0  0  0  0  0  0  0
    0.0000    9.2073    0.0000 H   0  0  0  0  0  0  0  0  0  0  0  0
  2  1  1  0  0  0  0 
  3  2  1  0  0  0  0 
  4  3  1  0  0  0  0 
  5  3  2  0  0  0  0 
  6  5  1  0  0  0  0 
  7  6  2  0  0  0  0 
  8  7  1  0  0  0  0 
  9  8  1  0  0  0  0 
 10  9  2  0  0  0  0 
 11 10  1  0  0  0  0 
 12 11  2  0  0  0  0 
 12  8  1  0  0  0  0 
 13 12  1  0  0  0  0 
 13  6  1  0  0  0  0 
 14  9  1  0  0  0  0 
 15 14  1  0  0  0  0 
 16 14  1  0  0  0  0 
 17 16  1  0  0  0  0 
 18 16  1  0  0  0  0 
 19 16  1  0  0  0  0 
 20 19  1  0  0  0  0 
 21 19  1  0  0  0  0 
 22 19  1  0  0  0  0 
 23 22  1  0  0  0  0 
 24 22  1  0  0  0  0 
 25 22  1  0  0  0  0 
 26 25  1  0  0  0  0 
 27 25  1  0  0  0  0 
 28 25  1  0  0  0  0 
 28 14  1  0  0  0  0 
 29 28  1  0  0  0  0 
 30 28  1  0  0  0  0 
 31  5  1  0  0  0  0 
 32 31  1  0  0  0  0 
 32  2  2  0  0  0  0 
 33 32  1  0  0  0  0 
M  END
> <id>
662583

> <origin>
MetFrag

> <smiles>
[H]c4c(c2nn1c(nnc1s2)C3([H])(C([H])([H])C([H])([H])C([H])([H])C([H])([H])C3([H])([H])))sc([H])c4([H])

> <name>
3-cyclohexyl-6-thiophen-2-yl-[1,2,4]triazolo[3,4-b][1,3,4]thiadiazole

> <peaksExplained>
2

> <tiedRank>
25

> <URL>
http://pubchem.ncbi.nlm.nih.gov/summary/summary.cgi?cid=662583

> <newscore>
0.5046315008506379

> <clusterRank>
25

> <origscore>
0.12350000000000001

$$$$

  CDK     1213131428

 33 35  0  0  0  0  0  0  0  0999 V2000
    1.2179    8.3087    0.0000 H   0  0  0  0  0  0  0  0  0  0  0  0
    1.0091    6.8233    0.0000 C   0  0  0  0  0  0  0  0  0  0  0  0
    2.0881    5.7813    0.0000 C   0  0  0  0  0  0  0  0  0  0  0  0
    3.5653    6.0417    0.0000 H   0  0  0  0  0  0  0  0  0  0  0  0
    1.4306    4.4331    0.0000 C   0  0  0  0  0  0  0  0  0  0  0  0
    2.1348    3.1087    0.0000 C   0  0  0  0  0  0  0  0  0  0  0  0
    3.6202    2.8999    0.0000 N   0  0  0  0  0  0  0  0  0  0  0  0
    3.8806    1.4227    0.0000 N   0  0  0  0  0  0  0  0  0  0  0  0
    2.5562    0.7185    0.0000 C   0  0  0  0  0  0  0  0  0  0  0  0
    1.4772    1.7605    0.0000 N   0  0  0  0  0  0  0  0  0  0  0  0
    0.0000    1.5000    0.0000 C   0  0  0  0  0  0  0  0  0  0  0  0
   -0.5130    2.9095    0.0000 H   0  0  0  0  0  0  0  0  0  0  0  0
    0.0000    0.0000    0.0000 C   0  0  0  0  0  0  0  0  0  0  0  0
   -0.5130   -1.4095    0.0000 H   0  0  0  0  0  0  0  0  0  0  0  0
    1.4772   -0.2605    0.0000 H   0  0  0  0  0  0  0  0  0  0  0  0
   -1.2990    0.7500    0.0000 C   0  0  0  0  0  0  0  0  0  0  0  0
   -2.2632    1.8991    0.0000 H   0  0  0  0  0  0  0  0  0  0  0  0
   -2.2632   -0.3991    0.0000 H   0  0  0  0  0  0  0  0  0  0  0  0
    2.3475   -0.7669    0.0000 S   0  0  0  0  0  0  0  0  0  0  0  0
    3.5295   -1.6904    0.0000 C   0  0  0  0  0  0  0  0  0  0  0  0
    4.9561   -2.1539    0.0000 H   0  0  0  0  0  0  0  0  0  0  0  0
    4.2337   -0.3660    0.0000 H   0  0  0  0  0  0  0  0  0  0  0  0
    3.3207   -3.1758    0.0000 C   0  0  0  0  0  0  0  0  0  0  0  0
    1.8941   -2.7123    0.0000 H   0  0  0  0  0  0  0  0  0  0  0  0
    2.6165   -4.5002    0.0000 H   0  0  0  0  0  0  0  0  0  0  0  0
    4.5027   -4.0993    0.0000 C   0  0  0  0  0  0  0  0  0  0  0  0
    5.9293   -4.5628    0.0000 H   0  0  0  0  0  0  0  0  0  0  0  0
    5.2069   -2.7749    0.0000 H   0  0  0  0  0  0  0  0  0  0  0  0
    4.2940   -5.5847    0.0000 C   0  0  0  0  0  0  0  0  0  0  0  0
    4.0852   -7.0701    0.0000 N   0  0  0  0  0  0  0  0  0  0  0  0
   -0.0548    4.6418    0.0000 S   0  0  0  0  0  0  0  0  0  0  0  0
   -0.3153    6.1191    0.0000 C   0  0  0  0  0  0  0  0  0  0  0  0
   -1.6635    6.7766    0.0000 H   0  0  0  0  0  0  0  0  0  0  0  0
  2  1  1  0  0  0  0 
  3  2  1  0  0  0  0 
  4  3  1  0  0  0  0 
  5  3  2  0  0  0  0 
  6  5  1  0  0  0  0 
  7  6  2  0  0  0  0 
  8  7  1  0  0  0  0 
  9  8  2  0  0  0  0 
 10  9  1  0  0  0  0 
 10  6  1  0  0  0  0 
 11 10  1  0  0  0  0 
 12 11  1  0  0  0  0 
 13 11  1  0  0  0  0 
 14 13  1  0  0  0  0 
 15 13  1  0  0  0  0 
 16 13  1  0  0  0  0 
 16 11  1  0  0  0  0 
 17 16  1  0  0  0  0 
 18 16  1  0  0  0  0 
 19  9  1  0  0  0  0 
 20 19  1  0  0  0  0 
 21 20  1  0  0  0  0 
 22 20  1  0  0  0  0 
 23 20  1  0  0  0  0 
 24 23  1  0  0  0  0 
 25 23  1  0  0  0  0 
 26 23  1  0  0  0  0 
 27 26  1  0  0  0  0 
 28 26  1  0  0  0  0 
 29 26  1  0  0  0  0 
 30 29  3  0  0  0  0 
 31  5  1  0  0  0  0 
 32 31  1  0  0  0  0 
 32  2  2  0  0  0  0 
 33 32  1  0  0  0  0 
M  END
> <id>
52474525

> <origin>
MetFrag

> <smiles>
[H]c3c(c1nnc(n1C2([H])(C([H])([H])C2([H])([H])))SC([H])([H])C([H])([H])C([H])([H])C#N)sc([H])c3([H])

> <name>
52474525

> <peaksExplained>
1

> <tiedRank>
26

> <URL>
http://pubchem.ncbi.nlm.nih.gov/summary/summary.cgi?cid=52474525

> <newscore>
0.5045599391288305

> <clusterRank>
26

> <origscore>
0.11624999999999999

$$$$

  CDK     1213131428

 34 34  0  0  0  0  0  0  0  0999 V2000
    1.0567    3.8735    0.0000 H   0  0  0  0  0  0  0  0  0  0  0  0
    1.2135    2.3817    0.0000 N   0  0  0  0  0  0  0  0  0  0  0  0
    2.5838    1.7716    0.0000 C   0  0  0  0  0  0  0  0  0  0  0  0
    2.7406    0.2798    0.0000 O   0  0  0  0  0  0  0  0  0  0  0  0
    3.7974    2.6533    0.0000 C   0  0  0  0  0  0  0  0  0  0  0  0
    4.6362    3.8968    0.0000 H   0  0  0  0  0  0  0  0  0  0  0  0
    5.1677    2.0431    0.0000 C   0  0  0  0  0  0  0  0  0  0  0  0
    4.3289    0.7996    0.0000 H   0  0  0  0  0  0  0  0  0  0  0  0
    6.2467    1.0012    0.0000 H   0  0  0  0  0  0  0  0  0  0  0  0
    6.3812    2.9248    0.0000 C   0  0  0  0  0  0  0  0  0  0  0  0
    7.2200    4.1684    0.0000 H   0  0  0  0  0  0  0  0  0  0  0  0
    5.3022    3.9668    0.0000 H   0  0  0  0  0  0  0  0  0  0  0  0
    7.7515    2.3147    0.0000 C   0  0  0  0  0  0  0  0  0  0  0  0
    8.9651    3.1964    0.0000 H   0  0  0  0  0  0  0  0  0  0  0  0
    6.9127    1.0712    0.0000 H   0  0  0  0  0  0  0  0  0  0  0  0
    8.8305    1.2727    0.0000 H   0  0  0  0  0  0  0  0  0  0  0  0
    2.7184    3.6952    0.0000 C   0  0  0  0  0  0  0  0  0  0  0  0
    1.3480    4.3053    0.0000 H   0  0  0  0  0  0  0  0  0  0  0  0
    1.8796    2.4517    0.0000 H   0  0  0  0  0  0  0  0  0  0  0  0
    3.0812    5.1507    0.0000 C   0  0  0  0  0  0  0  0  0  0  0  0
    2.9244    6.6425    0.0000 H   0  0  0  0  0  0  0  0  0  0  0  0
    1.5849    5.2553    0.0000 H   0  0  0  0  0  0  0  0  0  0  0  0
    4.5231    5.5641    0.0000 C   0  0  0  0  0  0  0  0  0  0  0  0
    4.8860    7.0196    0.0000 H   0  0  0  0  0  0  0  0  0  0  0  0
    4.6799    4.0724    0.0000 H   0  0  0  0  0  0  0  0  0  0  0  0
    6.0195    5.4595    0.0000 H   0  0  0  0  0  0  0  0  0  0  0  0
    0.0000    1.5000    0.0000 C   0  0  0  0  0  0  0  0  0  0  0  0
    0.0000    0.0000    0.0000 N   0  0  0  0  0  0  0  0  0  0  0  0
   -1.4266   -0.4635    0.0000 N   0  0  0  0  0  0  0  0  0  0  0  0
   -2.3083    0.7500    0.0000 C   0  0  0  0  0  0  0  0  0  0  0  0
   -1.4266    1.9635    0.0000 S   0  0  0  0  0  0  0  0  0  0  0  0
   -3.8083    0.7500    0.0000 S   0  0  0  0  0  0  0  0  0  0  0  0
   -4.5583   -0.5490    0.0000 O   0  0  0  0  0  0  0  0  0  0  0  0
   -4.5583    2.0490    0.0000 O   0  0  0  0  0  0  0  0  0  0  0  0
  2  1  1  0  0  0  0 
  3  2  1  0  0  0  0 
  4  3  2  0  0  0  0 
  5  3  1  0  0  0  0 
  6  5  1  0  0  0  0 
  7  5  1  0  0  0  0 
  8  7  1  0  0  0  0 
  9  7  1  0  0  0  0 
 10  7  1  0  0  0  0 
 11 10  1  0  0  0  0 
 12 10  1  0  0  0  0 
 13 10  1  0  0  0  0 
 14 13  1  0  0  0  0 
 15 13  1  0  0  0  0 
 16 13  1  0  0  0  0 
 17  5  1  0  0  0  0 
 18 17  1  0  0  0  0 
 19 17  1  0  0  0  0 
 20 17  1  0  0  0  0 
 21 20  1  0  0  0  0 
 22 20  1  0  0  0  0 
 23 20  1  0  0  0  0 
 24 23  1  0  0  0  0 
 25 23  1  0  0  0  0 
 26 23  1  0  0  0  0 
 27  2  1  0  0  0  0 
 28 27  2  0  0  0  0 
 29 28  1  0  0  0  0 
 30 29  2  0  0  0  0 
 31 30  1  0  0  0  0 
 31 27  1  0  0  0  0 
 32 30  1  0  0  0  0 
 33 32  2  0  0  0  0 
 34 32  1  0  0  0  0 
M  CHG  1  34  -1
M  END
> <id>
68405048

> <origin>
MetFrag

> <smiles>
[H]N(C(=O)C([H])(C([H])([H])C([H])([H])C([H])([H])[H])C([H])([H])C([H])([H])C([H])([H])[H])c1nnc(s1)S(=O)[O-]

> <name>
68405048

> <peaksExplained>
1

> <tiedRank>
27

> <URL>
http://pubchem.ncbi.nlm.nih.gov/summary/summary.cgi?cid=68405048

> <newscore>
0.5045374178186769

> <clusterRank>
27

> <origscore>
0.12175

$$$$

  CDK     1213131428

 33 36  0  0  0  0  0  0  0  0999 V2000
    1.2546    5.1731    0.0000 H   0  0  0  0  0  0  0  0  0  0  0  0
    0.5046    3.8740    0.0000 N   0  0  0  0  0  0  0  0  0  0  0  0
    1.1147    2.5037    0.0000 N   0  0  0  0  0  0  0  0  0  0  0  0
    0.0000    1.5000    0.0000 C   0  0  0  0  0  0  0  0  0  0  0  0
    0.0000    0.0000    0.0000 C   0  0  0  0  0  0  0  0  0  0  0  0
   -1.2990   -0.7500    0.0000 C   0  0  0  0  0  0  0  0  0  0  0  0
   -2.5981   -0.0000    0.0000 N   0  0  0  0  0  0  0  0  0  0  0  0
   -2.5981    1.5000    0.0000 C   0  0  0  0  0  0  0  0  0  0  0  0
   -1.2990    2.2500    0.0000 N   0  0  0  0  0  0  0  0  0  0  0  0
   -0.9872    3.7172    0.0000 C   0  0  0  0  0  0  0  0  0  0  0  0
   -1.9909    4.8319    0.0000 S   0  0  0  0  0  0  0  0  0  0  0  0
   -3.8971    2.2500    0.0000 C   0  0  0  0  0  0  0  0  0  0  0  0
   -5.1962    1.5000    0.0000 H   0  0  0  0  0  0  0  0  0  0  0  0
   -2.9329    3.3991    0.0000 H   0  0  0  0  0  0  0  0  0  0  0  0
   -4.8613    3.3991    0.0000 H   0  0  0  0  0  0  0  0  0  0  0  0
   -0.9872   -2.2172    0.0000 S   0  0  0  0  0  0  0  0  0  0  0  0
    0.5046   -2.3740    0.0000 C   0  0  0  0  0  0  0  0  0  0  0  0
    1.1147   -1.0037    0.0000 C   0  0  0  0  0  0  0  0  0  0  0  0
    2.5665   -0.6263    0.0000 C   0  0  0  0  0  0  0  0  0  0  0  0
    3.7107    0.3436    0.0000 H   0  0  0  0  0  0  0  0  0  0  0  0
    1.8755    0.7051    0.0000 H   0  0  0  0  0  0  0  0  0  0  0  0
    3.7667   -1.5260    0.0000 C   0  0  0  0  0  0  0  0  0  0  0  0
    5.2384   -1.8159    0.0000 H   0  0  0  0  0  0  0  0  0  0  0  0
    4.3768   -0.1557    0.0000 H   0  0  0  0  0  0  0  0  0  0  0  0
    3.8115   -3.0254    0.0000 C   0  0  0  0  0  0  0  0  0  0  0  0
    4.5025   -4.3568    0.0000 H   0  0  0  0  0  0  0  0  0  0  0  0
    5.2633   -2.6480    0.0000 H   0  0  0  0  0  0  0  0  0  0  0  0
    2.6673   -3.9953    0.0000 C   0  0  0  0  0  0  0  0  0  0  0  0
    2.0572   -5.3656    0.0000 H   0  0  0  0  0  0  0  0  0  0  0  0
    3.8675   -4.8950    0.0000 H   0  0  0  0  0  0  0  0  0  0  0  0
    1.1956   -3.7054    0.0000 C   0  0  0  0  0  0  0  0  0  0  0  0
   -0.2562   -4.0828    0.0000 H   0  0  0  0  0  0  0  0  0  0  0  0
    1.2404   -5.2047    0.0000 H   0  0  0  0  0  0  0  0  0  0  0  0
  2  1  1  0  0  0  0 
  3  2  1  0  0  0  0 
  4  3  2  0  0  0  0 
  5  4  1  0  0  0  0 
  6  5  2  0  0  0  0 
  7  6  1  0  0  0  0 
  8  7  2  0  0  0  0 
  9  8  1  0  0  0  0 
  9  4  1  0  0  0  0 
 10  9  1  0  0  0  0 
 10  2  1  0  0  0  0 
 11 10  2  0  0  0  0 
 12  8  1  0  0  0  0 
 13 12  1  0  0  0  0 
 14 12  1  0  0  0  0 
 15 12  1  0  0  0  0 
 16  6  1  0  0  0  0 
 17 16  1  0  0  0  0 
 18 17  2  0  0  0  0 
 18  5  1  0  0  0  0 
 19 18  1  0  0  0  0 
 20 19  1  0  0  0  0 
 21 19  1  0  0  0  0 
 22 19  1  0  0  0  0 
 23 22  1  0  0  0  0 
 24 22  1  0  0  0  0 
 25 22  1  0  0  0  0 
 26 25  1  0  0  0  0 
 27 25  1  0  0  0  0 
 28 25  1  0  0  0  0 
 29 28  1  0  0  0  0 
 30 28  1  0  0  0  0 
 31 28  1  0  0  0  0 
 31 17  1  0  0  0  0 
 32 31  1  0  0  0  0 
 33 31  1  0  0  0  0 
M  END
> <id>
16656123

> <origin>
MetFrag

> <smiles>
[H]N2N=C1c3c(N=C(N1C2=S)C([H])([H])[H])sc4c3C([H])([H])C([H])([H])C([H])([H])C([H])([H])C4([H])([H])

> <name>
16656123

> <peaksExplained>
1

> <tiedRank>
28

> <URL>
http://pubchem.ncbi.nlm.nih.gov/summary/summary.cgi?cid=16656123

> <newscore>
0.5039064852928012

> <clusterRank>
28

> <origscore>
0.026499999999999982

$$$$

  CDK     1213131428

 33 35  0  0  0  0  0  0  0  0999 V2000
    2.3795   -3.3567    0.0000 H   0  0  0  0  0  0  0  0  0  0  0  0
    2.8925   -1.9472    0.0000 C   0  0  0  0  0  0  0  0  0  0  0  0
    1.9284   -0.7981    0.0000 N   0  0  0  0  0  0  0  0  0  0  0  0
    2.4414    0.6114    0.0000 C   0  0  0  0  0  0  0  0  0  0  0  0
    3.9186    0.8719    0.0000 C   0  0  0  0  0  0  0  0  0  0  0  0
    4.4316    2.2814    0.0000 H   0  0  0  0  0  0  0  0  0  0  0  0
    4.8828   -0.2772    0.0000 N   0  0  0  0  0  0  0  0  0  0  0  0
    4.3698   -1.6867    0.0000 C   0  0  0  0  0  0  0  0  0  0  0  0
    5.3339   -2.8358    0.0000 C   0  0  0  0  0  0  0  0  0  0  0  0
    6.8111   -2.5753    0.0000 N   0  0  0  0  0  0  0  0  0  0  0  0
    7.7753   -3.7244    0.0000 H   0  0  0  0  0  0  0  0  0  0  0  0
    7.3242   -1.1658    0.0000 H   0  0  0  0  0  0  0  0  0  0  0  0
    4.8209   -4.2453    0.0000 S   0  0  0  0  0  0  0  0  0  0  0  0
    1.4772    1.7605    0.0000 N   0  0  0  0  0  0  0  0  0  0  0  0
    1.9902    3.1700    0.0000 C   0  0  0  0  0  0  0  0  0  0  0  0
    3.2893    2.4200    0.0000 H   0  0  0  0  0  0  0  0  0  0  0  0
    2.9544    4.3191    0.0000 H   0  0  0  0  0  0  0  0  0  0  0  0
    1.0261    4.3191    0.0000 C   0  0  0  0  0  0  0  0  0  0  0  0
   -0.4703    4.2144    0.0000 C   0  0  0  0  0  0  0  0  0  0  0  0
   -1.2652    2.9424    0.0000 H   0  0  0  0  0  0  0  0  0  0  0  0
   -1.0322    5.6052    0.0000 C   0  0  0  0  0  0  0  0  0  0  0  0
   -2.4876    5.9681    0.0000 H   0  0  0  0  0  0  0  0  0  0  0  0
    0.1169    6.5694    0.0000 C   0  0  0  0  0  0  0  0  0  0  0  0
    0.0122    8.0657    0.0000 H   0  0  0  0  0  0  0  0  0  0  0  0
    1.3889    5.7745    0.0000 S   0  0  0  0  0  0  0  0  0  0  0  0
    0.0000    1.5000    0.0000 C   0  0  0  0  0  0  0  0  0  0  0  0
   -0.5130    2.9095    0.0000 H   0  0  0  0  0  0  0  0  0  0  0  0
    0.0000    0.0000    0.0000 C   0  0  0  0  0  0  0  0  0  0  0  0
   -0.5130   -1.4095    0.0000 H   0  0  0  0  0  0  0  0  0  0  0  0
    1.4772   -0.2605    0.0000 H   0  0  0  0  0  0  0  0  0  0  0  0
   -1.2990    0.7500    0.0000 C   0  0  0  0  0  0  0  0  0  0  0  0
   -2.2632    1.8991    0.0000 H   0  0  0  0  0  0  0  0  0  0  0  0
   -2.2632   -0.3991    0.0000 H   0  0  0  0  0  0  0  0  0  0  0  0
  2  1  1  0  0  0  0 
  3  2  1  0  0  0  0 
  4  3  2  0  0  0  0 
  5  4  1  0  0  0  0 
  6  5  1  0  0  0  0 
  7  5  2  0  0  0  0 
  8  7  1  0  0  0  0 
  8  2  2  0  0  0  0 
  9  8  1  0  0  0  0 
 10  9  1  0  0  0  0 
 11 10  1  0  0  0  0 
 12 10  1  0  0  0  0 
 13  9  2  0  0  0  0 
 14  4  1  0  0  0  0 
 15 14  1  0  0  0  0 
 16 15  1  0  0  0  0 
 17 15  1  0  0  0  0 
 18 15  1  0  0  0  0 
 19 18  2  0  0  0  0 
 20 19  1  0  0  0  0 
 21 19  1  0  0  0  0 
 22 21  1  0  0  0  0 
 23 21  2  0  0  0  0 
 24 23  1  0  0  0  0 
 25 23  1  0  0  0  0 
 25 18  1  0  0  0  0 
 26 14  1  0  0  0  0 
 27 26  1  0  0  0  0 
 28 26  1  0  0  0  0 
 29 28  1  0  0  0  0 
 30 28  1  0  0  0  0 
 31 28  1  0  0  0  0 
 31 26  1  0  0  0  0 
 32 31  1  0  0  0  0 
 33 31  1  0  0  0  0 
M  END
> <id>
64272675

> <origin>
MetFrag

> <smiles>
[H]c1nc(c([H])nc1C(N([H])[H])=S)N(C([H])([H])c2c([H])c([H])c([H])s2)C3([H])(C([H])([H])C3([H])([H]))

> <name>
64272675

> <peaksExplained>
1

> <tiedRank>
29

> <URL>
http://pubchem.ncbi.nlm.nih.gov/summary/summary.cgi?cid=64272675

> <newscore>
0.5038183193360065

> <clusterRank>
29

> <origscore>
0.11624999999999999

$$$$

  CDK     1213131428

 33 34  0  0  0  0  0  0  0  0999 V2000
    4.6973    6.5185    0.0000 H   0  0  0  0  0  0  0  0  0  0  0  0
    4.8541    5.0267    0.0000 C   0  0  0  0  0  0  0  0  0  0  0  0
    6.2244    4.4166    0.0000 C   0  0  0  0  0  0  0  0  0  0  0  0
    7.4379    5.2983    0.0000 H   0  0  0  0  0  0  0  0  0  0  0  0
    6.3812    2.9248    0.0000 C   0  0  0  0  0  0  0  0  0  0  0  0
    7.7515    2.3147    0.0000 C   0  0  0  0  0  0  0  0  0  0  0  0
    9.1218    1.7046    0.0000 N   0  0  0  0  0  0  0  0  0  0  0  0
    5.1677    2.0431    0.0000 C   0  0  0  0  0  0  0  0  0  0  0  0
    5.3245    0.5514    0.0000 H   0  0  0  0  0  0  0  0  0  0  0  0
    3.7974    2.6533    0.0000 C   0  0  0  0  0  0  0  0  0  0  0  0
    3.6406    4.1450    0.0000 C   0  0  0  0  0  0  0  0  0  0  0  0
    2.2703    4.7551    0.0000 H   0  0  0  0  0  0  0  0  0  0  0  0
    2.5838    1.7716    0.0000 C   0  0  0  0  0  0  0  0  0  0  0  0
    1.7451    0.5280    0.0000 H   0  0  0  0  0  0  0  0  0  0  0  0
    3.6629    0.7296    0.0000 H   0  0  0  0  0  0  0  0  0  0  0  0
    1.2135    2.3817    0.0000 S   0  0  0  0  0  0  0  0  0  0  0  0
    0.0000    1.5000    0.0000 C   0  0  0  0  0  0  0  0  0  0  0  0
    0.0000    0.0000    0.0000 N   0  0  0  0  0  0  0  0  0  0  0  0
   -1.4266   -0.4635    0.0000 N   0  0  0  0  0  0  0  0  0  0  0  0
   -2.3083    0.7500    0.0000 C   0  0  0  0  0  0  0  0  0  0  0  0
   -3.8083    0.7500    0.0000 N   0  0  0  0  0  0  0  0  0  0  0  0
   -4.5583    2.0490    0.0000 H   0  0  0  0  0  0  0  0  0  0  0  0
   -4.5583   -0.5490    0.0000 C   0  0  0  0  0  0  0  0  0  0  0  0
   -4.8187   -2.0262    0.0000 H   0  0  0  0  0  0  0  0  0  0  0  0
   -6.0583   -0.5490    0.0000 C   0  0  0  0  0  0  0  0  0  0  0  0
   -6.8083   -1.8481    0.0000 H   0  0  0  0  0  0  0  0  0  0  0  0
   -5.7978    0.9282    0.0000 H   0  0  0  0  0  0  0  0  0  0  0  0
   -7.4678   -0.0360    0.0000 H   0  0  0  0  0  0  0  0  0  0  0  0
   -3.1487   -1.0621    0.0000 C   0  0  0  0  0  0  0  0  0  0  0  0
   -2.8883   -2.5393    0.0000 H   0  0  0  0  0  0  0  0  0  0  0  0
   -1.6487   -1.0621    0.0000 H   0  0  0  0  0  0  0  0  0  0  0  0
   -2.8883    0.4151    0.0000 H   0  0  0  0  0  0  0  0  0  0  0  0
   -1.4266    1.9635    0.0000 S   0  0  0  0  0  0  0  0  0  0  0  0
  2  1  1  0  0  0  0 
  3  2  1  0  0  0  0 
  4  3  1  0  0  0  0 
  5  3  2  0  0  0  0 
  6  5  1  0  0  0  0 
  7  6  3  0  0  0  0 
  8  5  1  0  0  0  0 
  9  8  1  0  0  0  0 
 10  8  2  0  0  0  0 
 11 10  1  0  0  0  0 
 11  2  2  0  0  0  0 
 12 11  1  0  0  0  0 
 13 10  1  0  0  0  0 
 14 13  1  0  0  0  0 
 15 13  1  0  0  0  0 
 16 13  1  0  0  0  0 
 17 16  1  0  0  0  0 
 18 17  2  0  0  0  0 
 19 18  1  0  0  0  0 
 20 19  2  0  0  0  0 
 21 20  1  0  0  0  0 
 22 21  1  0  0  0  0 
 23 21  1  0  0  0  0 
 24 23  1  0  0  0  0 
 25 23  1  0  0  0  0 
 26 25  1  0  0  0  0 
 27 25  1  0  0  0  0 
 28 25  1  0  0  0  0 
 29 23  1  0  0  0  0 
 30 29  1  0  0  0  0 
 31 29  1  0  0  0  0 
 32 29  1  0  0  0  0 
 33 20  1  0  0  0  0 
 33 17  1  0  0  0  0 
M  END
> <id>
16371073

> <origin>
MetFrag

> <smiles>
[H]c1c(C#N)c([H])c(c([H])c1([H]))C([H])([H])Sc2nnc(N([H])C([H])(C([H])([H])[H])C([H])([H])[H])s2

> <name>
3-[[5-(propan-2-ylamino)-1,3,4-thiadiazol-2-yl]sulfanylmethyl]benzonitrile

> <peaksExplained>
1

> <tiedRank>
30

> <URL>
http://pubchem.ncbi.nlm.nih.gov/summary/summary.cgi?cid=16371073

> <newscore>
0.503793774669143

> <clusterRank>
30

> <origscore>
0.13274999999999998

$$$$

  CDK     1213131428

 36 36  0  0  0  0  0  0  0  0999 V2000
    3.8971    6.7500    0.0000 H   0  0  0  0  0  0  0  0  0  0  0  0
    2.5981    6.0000    0.0000 O   0  0  0  0  0  0  0  0  0  0  0  0
    2.5981    4.5000    0.0000 S   0  0  0  0  0  0  0  0  0  0  0  0
    3.1111    3.0905    0.0000 O   0  0  0  0  0  0  0  0  0  0  0  0
    1.2990    3.7500    0.0000 O   0  0  0  0  0  0  0  0  0  0  0  0
    1.2990    2.2500    0.0000 C   0  0  0  0  0  0  0  0  0  0  0  0
    1.8121    0.8405    0.0000 H   0  0  0  0  0  0  0  0  0  0  0  0
    2.7762    2.5105    0.0000 H   0  0  0  0  0  0  0  0  0  0  0  0
    0.0000    1.5000    0.0000 C   0  0  0  0  0  0  0  0  0  0  0  0
    0.0000    0.0000    0.0000 C   0  0  0  0  0  0  0  0  0  0  0  0
    1.2990   -0.7500    0.0000 H   0  0  0  0  0  0  0  0  0  0  0  0
   -1.2990   -0.7500    0.0000 C   0  0  0  0  0  0  0  0  0  0  0  0
   -1.2990   -2.2500    0.0000 H   0  0  0  0  0  0  0  0  0  0  0  0
   -2.5981   -0.0000    0.0000 C   0  0  0  0  0  0  0  0  0  0  0  0
   -3.8971   -0.7500    0.0000 O   0  0  0  0  0  0  0  0  0  0  0  0
   -3.8971   -2.2500    0.0000 C   0  0  0  0  0  0  0  0  0  0  0  0
   -3.3841   -3.6595    0.0000 H   0  0  0  0  0  0  0  0  0  0  0  0
   -2.4199   -1.9895    0.0000 H   0  0  0  0  0  0  0  0  0  0  0  0
   -5.1962   -3.0000    0.0000 C   0  0  0  0  0  0  0  0  0  0  0  0
   -5.7092   -1.5905    0.0000 H   0  0  0  0  0  0  0  0  0  0  0  0
   -6.6734   -3.2605    0.0000 H   0  0  0  0  0  0  0  0  0  0  0  0
   -5.1962   -4.5000    0.0000 C   0  0  0  0  0  0  0  0  0  0  0  0
   -4.6831   -5.9095    0.0000 H   0  0  0  0  0  0  0  0  0  0  0  0
   -6.4952   -5.2500    0.0000 C   0  0  0  0  0  0  0  0  0  0  0  0
   -6.4952   -6.7500    0.0000 H   0  0  0  0  0  0  0  0  0  0  0  0
   -7.0082   -3.8405    0.0000 H   0  0  0  0  0  0  0  0  0  0  0  0
   -7.9724   -5.5105    0.0000 H   0  0  0  0  0  0  0  0  0  0  0  0
   -3.7189   -4.2395    0.0000 C   0  0  0  0  0  0  0  0  0  0  0  0
   -2.7548   -5.3886    0.0000 H   0  0  0  0  0  0  0  0  0  0  0  0
   -2.4199   -3.4895    0.0000 H   0  0  0  0  0  0  0  0  0  0  0  0
   -4.2320   -2.8300    0.0000 H   0  0  0  0  0  0  0  0  0  0  0  0
   -2.5981    1.5000    0.0000 C   0  0  0  0  0  0  0  0  0  0  0  0
   -3.8971    2.2500    0.0000 H   0  0  0  0  0  0  0  0  0  0  0  0
   -1.2990    2.2500    0.0000 C   0  0  0  0  0  0  0  0  0  0  0  0
   -1.2990    3.7500    0.0000 H   0  0  0  0  0  0  0  0  0  0  0  0
    4.0753    4.7605    0.0000 S   0  0  0  0  0  0  0  0  0  0  0  0
  2  1  1  0  0  0  0 
  3  2  1  0  0  0  0 
  4  3  2  0  0  0  0 
  5  3  1  0  0  0  0 
  6  5  1  0  0  0  0 
  7  6  1  0  0  0  0 
  8  6  1  0  0  0  0 
  9  6  1  0  0  0  0 
 10  9  2  0  0  0  0 
 11 10  1  0  0  0  0 
 12 10  1  0  0  0  0 
 13 12  1  0  0  0  0 
 14 12  2  0  0  0  0 
 15 14  1  0  0  0  0 
 16 15  1  0  0  0  0 
 17 16  1  0  0  0  0 
 18 16  1  0  0  0  0 
 19 16  1  0  0  0  0 
 20 19  1  0  0  0  0 
 21 19  1  0  0  0  0 
 22 19  1  0  0  0  0 
 23 22  1  0  0  0  0 
 24 22  1  0  0  0  0 
 25 24  1  0  0  0  0 
 26 24  1  0  0  0  0 
 27 24  1  0  0  0  0 
 28 22  1  0  0  0  0 
 29 28  1  0  0  0  0 
 30 28  1  0  0  0  0 
 31 28  1  0  0  0  0 
 32 14  1  0  0  0  0 
 33 32  1  0  0  0  0 
 34 32  2  0  0  0  0 
 34  9  1  0  0  0  0 
 35 34  1  0  0  0  0 
 36  3  2  0  0  0  0 
M  END
> <id>
54466477

> <origin>
MetFrag

> <smiles>
[H]OS(=O)(OC([H])([H])c1c([H])c([H])c(OC([H])([H])C([H])([H])C([H])(C([H])([H])[H])C([H])([H])[H])c([H])c1([H]))=S

> <name>
54466477

> <peaksExplained>
1

> <tiedRank>
31

> <URL>
http://pubchem.ncbi.nlm.nih.gov/summary/summary.cgi?cid=54466477

> <newscore>
0.503557705809419

> <clusterRank>
31

> <origscore>
0.12175

$$$$

  CDK     1213131428

 33 35  0  0  0  0  0  0  0  0999 V2000
   13.2539    2.1325    0.0000 H   0  0  0  0  0  0  0  0  0  0  0  0
   11.9057    2.7900    0.0000 C   0  0  0  0  0  0  0  0  0  0  0  0
   10.6621    1.9513    0.0000 C   0  0  0  0  0  0  0  0  0  0  0  0
   10.7668    0.4549    0.0000 H   0  0  0  0  0  0  0  0  0  0  0  0
    9.3140    2.6088    0.0000 C   0  0  0  0  0  0  0  0  0  0  0  0
    8.0704    1.7700    0.0000 H   0  0  0  0  0  0  0  0  0  0  0  0
    9.2093    4.1052    0.0000 C   0  0  0  0  0  0  0  0  0  0  0  0
   10.4529    4.9439    0.0000 C   0  0  0  0  0  0  0  0  0  0  0  0
   10.3482    6.4403    0.0000 H   0  0  0  0  0  0  0  0  0  0  0  0
   11.8011    4.2864    0.0000 C   0  0  0  0  0  0  0  0  0  0  0  0
   13.0446    5.1252    0.0000 H   0  0  0  0  0  0  0  0  0  0  0  0
    7.8611    4.7627    0.0000 C   0  0  0  0  0  0  0  0  0  0  0  0
    6.5367    4.0585    0.0000 N   0  0  0  0  0  0  0  0  0  0  0  0
    5.4577    5.1005    0.0000 C   0  0  0  0  0  0  0  0  0  0  0  0
    3.9805    4.8400    0.0000 N   0  0  0  0  0  0  0  0  0  0  0  0
    3.0163    5.9891    0.0000 H   0  0  0  0  0  0  0  0  0  0  0  0
    3.4675    3.4305    0.0000 N   0  0  0  0  0  0  0  0  0  0  0  0
    4.4316    2.2814    0.0000 H   0  0  0  0  0  0  0  0  0  0  0  0
    1.9902    3.1700    0.0000 C   0  0  0  0  0  0  0  0  0  0  0  0
    1.4772    1.7605    0.0000 N   0  0  0  0  0  0  0  0  0  0  0  0
    2.4414    0.6114    0.0000 H   0  0  0  0  0  0  0  0  0  0  0  0
    0.0000    1.5000    0.0000 C   0  0  0  0  0  0  0  0  0  0  0  0
   -0.5130    2.9095    0.0000 H   0  0  0  0  0  0  0  0  0  0  0  0
    0.0000    0.0000    0.0000 C   0  0  0  0  0  0  0  0  0  0  0  0
   -0.5130   -1.4095    0.0000 H   0  0  0  0  0  0  0  0  0  0  0  0
    1.4772   -0.2605    0.0000 H   0  0  0  0  0  0  0  0  0  0  0  0
   -1.2990    0.7500    0.0000 C   0  0  0  0  0  0  0  0  0  0  0  0
   -2.2632    1.8991    0.0000 H   0  0  0  0  0  0  0  0  0  0  0  0
   -2.2632   -0.3991    0.0000 H   0  0  0  0  0  0  0  0  0  0  0  0
    1.0261    4.3191    0.0000 S   0  0  0  0  0  0  0  0  0  0  0  0
    6.1153    6.4487    0.0000 S   0  0  0  0  0  0  0  0  0  0  0  0
    7.6007    6.2399    0.0000 C   0  0  0  0  0  0  0  0  0  0  0  0
    8.6426    7.3189    0.0000 H   0  0  0  0  0  0  0  0  0  0  0  0
  2  1  1  0  0  0  0 
  3  2  2  0  0  0  0 
  4  3  1  0  0  0  0 
  5  3  1  0  0  0  0 
  6  5  1  0  0  0  0 
  7  5  2  0  0  0  0 
  8  7  1  0  0  0  0 
  9  8  1  0  0  0  0 
 10  8  2  0  0  0  0 
 10  2  1  0  0  0  0 
 11 10  1  0  0  0  0 
 12  7  1  0  0  0  0 
 13 12  1  0  0  0  0 
 14 13  2  0  0  0  0 
 15 14  1  0  0  0  0 
 16 15  1  0  0  0  0 
 17 15  1  0  0  0  0 
 18 17  1  0  0  0  0 
 19 17  1  0  0  0  0 
 20 19  1  0  0  0  0 
 21 20  1  0  0  0  0 
 22 20  1  0  0  0  0 
 23 22  1  0  0  0  0 
 24 22  1  0  0  0  0 
 25 24  1  0  0  0  0 
 26 24  1  0  0  0  0 
 27 24  1  0  0  0  0 
 27 22  1  0  0  0  0 
 28 27  1  0  0  0  0 
 29 27  1  0  0  0  0 
 30 19  2  0  0  0  0 
 31 14  1  0  0  0  0 
 32 31  1  0  0  0  0 
 32 12  2  0  0  0  0 
 33 32  1  0  0  0  0 
M  END
> <id>
8486698

> <origin>
MetFrag

> <smiles>
[H]c2c(nc(N([H])N([H])C(N([H])C1([H])(C([H])([H])C1([H])([H])))=S)s2)c3c([H])c([H])c([H])c([H])c3([H])

> <name>
1-cyclopropyl-3-[(4-phenyl-1,3-thiazol-2-yl)amino]thiourea

> <peaksExplained>
1

> <tiedRank>
32

> <URL>
http://pubchem.ncbi.nlm.nih.gov/summary/summary.cgi?cid=8486698

> <newscore>
0.5035246118780516

> <clusterRank>
32

> <origscore>
0.11624999999999999

$$$$

  CDK     1213131428

 33 35  0  0  0  0  0  0  0  0999 V2000
    5.3339   -2.8358    0.0000 H   0  0  0  0  0  0  0  0  0  0  0  0
    4.3698   -1.6867    0.0000 C   0  0  0  0  0  0  0  0  0  0  0  0
    2.8925   -1.9472    0.0000 N   0  0  0  0  0  0  0  0  0  0  0  0
    1.9284   -0.7981    0.0000 C   0  0  0  0  0  0  0  0  0  0  0  0
    2.4414    0.6114    0.0000 C   0  0  0  0  0  0  0  0  0  0  0  0
    3.9186    0.8719    0.0000 N   0  0  0  0  0  0  0  0  0  0  0  0
    4.8828   -0.2772    0.0000 C   0  0  0  0  0  0  0  0  0  0  0  0
    6.3600   -0.0167    0.0000 H   0  0  0  0  0  0  0  0  0  0  0  0
    1.4772    1.7605    0.0000 N   0  0  0  0  0  0  0  0  0  0  0  0
    1.9902    3.1700    0.0000 C   0  0  0  0  0  0  0  0  0  0  0  0
    3.2893    2.4200    0.0000 H   0  0  0  0  0  0  0  0  0  0  0  0
    2.9544    4.3191    0.0000 H   0  0  0  0  0  0  0  0  0  0  0  0
    1.0261    4.3191    0.0000 C   0  0  0  0  0  0  0  0  0  0  0  0
   -0.4703    4.2144    0.0000 C   0  0  0  0  0  0  0  0  0  0  0  0
   -1.2652    2.9424    0.0000 H   0  0  0  0  0  0  0  0  0  0  0  0
   -1.0322    5.6052    0.0000 C   0  0  0  0  0  0  0  0  0  0  0  0
   -2.4876    5.9681    0.0000 H   0  0  0  0  0  0  0  0  0  0  0  0
    0.1169    6.5694    0.0000 S   0  0  0  0  0  0  0  0  0  0  0  0
    1.3889    5.7745    0.0000 C   0  0  0  0  0  0  0  0  0  0  0  0
    2.7797    6.3364    0.0000 H   0  0  0  0  0  0  0  0  0  0  0  0
    0.0000    1.5000    0.0000 C   0  0  0  0  0  0  0  0  0  0  0  0
   -0.5130    2.9095    0.0000 H   0  0  0  0  0  0  0  0  0  0  0  0
    0.0000    0.0000    0.0000 C   0  0  0  0  0  0  0  0  0  0  0  0
   -0.5130   -1.4095    0.0000 H   0  0  0  0  0  0  0  0  0  0  0  0
    1.4772   -0.2605    0.0000 H   0  0  0  0  0  0  0  0  0  0  0  0
   -1.2990    0.7500    0.0000 C   0  0  0  0  0  0  0  0  0  0  0  0
   -2.2632    1.8991    0.0000 H   0  0  0  0  0  0  0  0  0  0  0  0
   -2.2632   -0.3991    0.0000 H   0  0  0  0  0  0  0  0  0  0  0  0
    0.4512   -1.0586    0.0000 C   0  0  0  0  0  0  0  0  0  0  0  0
   -0.0619   -2.4681    0.0000 N   0  0  0  0  0  0  0  0  0  0  0  0
    0.9023   -3.6172    0.0000 H   0  0  0  0  0  0  0  0  0  0  0  0
   -1.5391   -2.7286    0.0000 H   0  0  0  0  0  0  0  0  0  0  0  0
   -0.5130    0.0905    0.0000 S   0  0  0  0  0  0  0  0  0  0  0  0
  2  1  1  0  0  0  0 
  3  2  1  0  0  0  0 
  4  3  2  0  0  0  0 
  5  4  1  0  0  0  0 
  6  5  2  0  0  0  0 
  7  6  1  0  0  0  0 
  7  2  2  0  0  0  0 
  8  7  1  0  0  0  0 
  9  5  1  0  0  0  0 
 10  9  1  0  0  0  0 
 11 10  1  0  0  0  0 
 12 10  1  0  0  0  0 
 13 10  1  0  0  0  0 
 14 13  1  0  0  0  0 
 15 14  1  0  0  0  0 
 16 14  2  0  0  0  0 
 17 16  1  0  0  0  0 
 18 16  1  0  0  0  0 
 19 18  1  0  0  0  0 
 19 13  2  0  0  0  0 
 20 19  1  0  0  0  0 
 21  9  1  0  0  0  0 
 22 21  1  0  0  0  0 
 23 21  1  0  0  0  0 
 24 23  1  0  0  0  0 
 25 23  1  0  0  0  0 
 26 23  1  0  0  0  0 
 26 21  1  0  0  0  0 
 27 26  1  0  0  0  0 
 28 26  1  0  0  0  0 
 29  4  1  0  0  0  0 
 30 29  1  0  0  0  0 
 31 30  1  0  0  0  0 
 32 30  1  0  0  0  0 
 33 29  2  0  0  0  0 
M  END
> <id>
62685649

> <origin>
MetFrag

> <smiles>
[H]c1nc(c(nc1([H]))N(C([H])([H])c2c([H])c([H])sc2([H]))C3([H])(C([H])([H])C3([H])([H])))C(N([H])[H])=S

> <name>
62685649

> <peaksExplained>
1

> <tiedRank>
33

> <URL>
http://pubchem.ncbi.nlm.nih.gov/summary/summary.cgi?cid=62685649

> <newscore>
0.5030078198100327

> <clusterRank>
33

> <origscore>
0.11624999999999999

$$$$

  CDK     1213131428

 33 34  0  0  0  0  0  0  0  0999 V2000
    7.7515    2.3147    0.0000 H   0  0  0  0  0  0  0  0  0  0  0  0
    6.3812    2.9248    0.0000 C   0  0  0  0  0  0  0  0  0  0  0  0
    5.1677    2.0431    0.0000 C   0  0  0  0  0  0  0  0  0  0  0  0
    5.3245    0.5514    0.0000 H   0  0  0  0  0  0  0  0  0  0  0  0
    3.7974    2.6533    0.0000 C   0  0  0  0  0  0  0  0  0  0  0  0
    3.6406    4.1450    0.0000 C   0  0  0  0  0  0  0  0  0  0  0  0
    2.2703    4.7551    0.0000 H   0  0  0  0  0  0  0  0  0  0  0  0
    4.8541    5.0267    0.0000 C   0  0  0  0  0  0  0  0  0  0  0  0
    4.6973    6.5185    0.0000 H   0  0  0  0  0  0  0  0  0  0  0  0
    6.2244    4.4166    0.0000 C   0  0  0  0  0  0  0  0  0  0  0  0
    7.4379    5.2983    0.0000 C   0  0  0  0  0  0  0  0  0  0  0  0
    8.6515    6.1800    0.0000 N   0  0  0  0  0  0  0  0  0  0  0  0
    2.5838    1.7716    0.0000 C   0  0  0  0  0  0  0  0  0  0  0  0
    1.7451    0.5280    0.0000 H   0  0  0  0  0  0  0  0  0  0  0  0
    3.6629    0.7296    0.0000 H   0  0  0  0  0  0  0  0  0  0  0  0
    1.2135    2.3817    0.0000 S   0  0  0  0  0  0  0  0  0  0  0  0
    0.0000    1.5000    0.0000 C   0  0  0  0  0  0  0  0  0  0  0  0
    0.0000    0.0000    0.0000 N   0  0  0  0  0  0  0  0  0  0  0  0
   -1.4266   -0.4635    0.0000 N   0  0  0  0  0  0  0  0  0  0  0  0
   -2.3083    0.7500    0.0000 C   0  0  0  0  0  0  0  0  0  0  0  0
   -3.8083    0.7500    0.0000 N   0  0  0  0  0  0  0  0  0  0  0  0
   -4.5583    2.0490    0.0000 H   0  0  0  0  0  0  0  0  0  0  0  0
   -4.5583   -0.5490    0.0000 C   0  0  0  0  0  0  0  0  0  0  0  0
   -4.8187   -2.0262    0.0000 H   0  0  0  0  0  0  0  0  0  0  0  0
   -6.0583   -0.5490    0.0000 C   0  0  0  0  0  0  0  0  0  0  0  0
   -6.8083   -1.8481    0.0000 H   0  0  0  0  0  0  0  0  0  0  0  0
   -5.7978    0.9282    0.0000 H   0  0  0  0  0  0  0  0  0  0  0  0
   -7.4678   -0.0360    0.0000 H   0  0  0  0  0  0  0  0  0  0  0  0
   -3.1487   -1.0621    0.0000 C   0  0  0  0  0  0  0  0  0  0  0  0
   -2.8883   -2.5393    0.0000 H   0  0  0  0  0  0  0  0  0  0  0  0
   -1.6487   -1.0621    0.0000 H   0  0  0  0  0  0  0  0  0  0  0  0
   -2.8883    0.4151    0.0000 H   0  0  0  0  0  0  0  0  0  0  0  0
   -1.4266    1.9635    0.0000 S   0  0  0  0  0  0  0  0  0  0  0  0
  2  1  1  0  0  0  0 
  3  2  1  0  0  0  0 
  4  3  1  0  0  0  0 
  5  3  2  0  0  0  0 
  6  5  1  0  0  0  0 
  7  6  1  0  0  0  0 
  8  6  2  0  0  0  0 
  9  8  1  0  0  0  0 
 10  8  1  0  0  0  0 
 10  2  2  0  0  0  0 
 11 10  1  0  0  0  0 
 12 11  3  0  0  0  0 
 13  5  1  0  0  0  0 
 14 13  1  0  0  0  0 
 15 13  1  0  0  0  0 
 16 13  1  0  0  0  0 
 17 16  1  0  0  0  0 
 18 17  2  0  0  0  0 
 19 18  1  0  0  0  0 
 20 19  2  0  0  0  0 
 21 20  1  0  0  0  0 
 22 21  1  0  0  0  0 
 23 21  1  0  0  0  0 
 24 23  1  0  0  0  0 
 25 23  1  0  0  0  0 
 26 25  1  0  0  0  0 
 27 25  1  0  0  0  0 
 28 25  1  0  0  0  0 
 29 23  1  0  0  0  0 
 30 29  1  0  0  0  0 
 31 29  1  0  0  0  0 
 32 29  1  0  0  0  0 
 33 20  1  0  0  0  0 
 33 17  1  0  0  0  0 
M  END
> <id>
2501762

> <origin>
MetFrag

> <smiles>
[H]c1c(C#N)c([H])c([H])c(c1([H]))C([H])([H])Sc2nnc(N([H])C([H])(C([H])([H])[H])C([H])([H])[H])s2

> <name>
4-[[5-(propan-2-ylamino)-1,3,4-thiadiazol-2-yl]sulfanylmethyl]benzonitrile

> <peaksExplained>
1

> <tiedRank>
34

> <URL>
http://pubchem.ncbi.nlm.nih.gov/summary/summary.cgi?cid=2501762

> <newscore>
0.5027794723326277

> <clusterRank>
34

> <origscore>
0.13274999999999998

$$$$

  CDK     1213131428

 33 35  0  0  0  0  0  0  0  0999 V2000
    2.3795   -3.3567    0.0000 H   0  0  0  0  0  0  0  0  0  0  0  0
    2.8925   -1.9472    0.0000 C   0  0  0  0  0  0  0  0  0  0  0  0
    1.9284   -0.7981    0.0000 N   0  0  0  0  0  0  0  0  0  0  0  0
    2.4414    0.6114    0.0000 C   0  0  0  0  0  0  0  0  0  0  0  0
    3.9186    0.8719    0.0000 C   0  0  0  0  0  0  0  0  0  0  0  0
    4.4316    2.2814    0.0000 H   0  0  0  0  0  0  0  0  0  0  0  0
    4.8828   -0.2772    0.0000 N   0  0  0  0  0  0  0  0  0  0  0  0
    4.3698   -1.6867    0.0000 C   0  0  0  0  0  0  0  0  0  0  0  0
    5.3339   -2.8358    0.0000 C   0  0  0  0  0  0  0  0  0  0  0  0
    6.8111   -2.5753    0.0000 N   0  0  0  0  0  0  0  0  0  0  0  0
    7.7753   -3.7244    0.0000 H   0  0  0  0  0  0  0  0  0  0  0  0
    7.3242   -1.1658    0.0000 H   0  0  0  0  0  0  0  0  0  0  0  0
    4.8209   -4.2453    0.0000 S   0  0  0  0  0  0  0  0  0  0  0  0
    1.4772    1.7605    0.0000 N   0  0  0  0  0  0  0  0  0  0  0  0
    1.9902    3.1700    0.0000 C   0  0  0  0  0  0  0  0  0  0  0  0
    3.2893    2.4200    0.0000 H   0  0  0  0  0  0  0  0  0  0  0  0
    2.9544    4.3191    0.0000 H   0  0  0  0  0  0  0  0  0  0  0  0
    1.0261    4.3191    0.0000 C   0  0  0  0  0  0  0  0  0  0  0  0
   -0.4703    4.2144    0.0000 C   0  0  0  0  0  0  0  0  0  0  0  0
   -1.2652    2.9424    0.0000 H   0  0  0  0  0  0  0  0  0  0  0  0
   -1.0322    5.6052    0.0000 C   0  0  0  0  0  0  0  0  0  0  0  0
   -2.4876    5.9681    0.0000 H   0  0  0  0  0  0  0  0  0  0  0  0
    0.1169    6.5694    0.0000 S   0  0  0  0  0  0  0  0  0  0  0  0
    1.3889    5.7745    0.0000 C   0  0  0  0  0  0  0  0  0  0  0  0
    2.7797    6.3364    0.0000 H   0  0  0  0  0  0  0  0  0  0  0  0
    0.0000    1.5000    0.0000 C   0  0  0  0  0  0  0  0  0  0  0  0
   -0.5130    2.9095    0.0000 H   0  0  0  0  0  0  0  0  0  0  0  0
    0.0000    0.0000    0.0000 C   0  0  0  0  0  0  0  0  0  0  0  0
   -0.5130   -1.4095    0.0000 H   0  0  0  0  0  0  0  0  0  0  0  0
    1.4772   -0.2605    0.0000 H   0  0  0  0  0  0  0  0  0  0  0  0
   -1.2990    0.7500    0.0000 C   0  0  0  0  0  0  0  0  0  0  0  0
   -2.2632    1.8991    0.0000 H   0  0  0  0  0  0  0  0  0  0  0  0
   -2.2632   -0.3991    0.0000 H   0  0  0  0  0  0  0  0  0  0  0  0
  2  1  1  0  0  0  0 
  3  2  1  0  0  0  0 
  4  3  2  0  0  0  0 
  5  4  1  0  0  0  0 
  6  5  1  0  0  0  0 
  7  5  2  0  0  0  0 
  8  7  1  0  0  0  0 
  8  2  2  0  0  0  0 
  9  8  1  0  0  0  0 
 10  9  1  0  0  0  0 
 11 10  1  0  0  0  0 
 12 10  1  0  0  0  0 
 13  9  2  0  0  0  0 
 14  4  1  0  0  0  0 
 15 14  1  0  0  0  0 
 16 15  1  0  0  0  0 
 17 15  1  0  0  0  0 
 18 15  1  0  0  0  0 
 19 18  1  0  0  0  0 
 20 19  1  0  0  0  0 
 21 19  2  0  0  0  0 
 22 21  1  0  0  0  0 
 23 21  1  0  0  0  0 
 24 23  1  0  0  0  0 
 24 18  2  0  0  0  0 
 25 24  1  0  0  0  0 
 26 14  1  0  0  0  0 
 27 26  1  0  0  0  0 
 28 26  1  0  0  0  0 
 29 28  1  0  0  0  0 
 30 28  1  0  0  0  0 
 31 28  1  0  0  0  0 
 31 26  1  0  0  0  0 
 32 31  1  0  0  0  0 
 33 31  1  0  0  0  0 
M  END
> <id>
64271243

> <origin>
MetFrag

> <smiles>
[H]c1nc(c([H])nc1C(N([H])[H])=S)N(C([H])([H])c2c([H])c([H])sc2([H]))C3([H])(C([H])([H])C3([H])([H]))

> <name>
64271243

> <peaksExplained>
1

> <tiedRank>
35

> <URL>
http://pubchem.ncbi.nlm.nih.gov/summary/summary.cgi?cid=64271243

> <newscore>
0.5021395697351612

> <clusterRank>
35

> <origscore>
0.11624999999999999

$$$$

  CDK     1213131428

 33 34  0  0  0  0  0  0  0  0999 V2000
    4.2269   10.9938    0.0000 H   0  0  0  0  0  0  0  0  0  0  0  0
    4.3837    9.5021    0.0000 C   0  0  0  0  0  0  0  0  0  0  0  0
    5.7540    8.8920    0.0000 H   0  0  0  0  0  0  0  0  0  0  0  0
    3.1702    8.6204    0.0000 C   0  0  0  0  0  0  0  0  0  0  0  0
    1.7999    9.2305    0.0000 H   0  0  0  0  0  0  0  0  0  0  0  0
    3.3270    7.1286    0.0000 C   0  0  0  0  0  0  0  0  0  0  0  0
    3.9845    5.7804    0.0000 H   0  0  0  0  0  0  0  0  0  0  0  0
    4.7689    7.5421    0.0000 H   0  0  0  0  0  0  0  0  0  0  0  0
    2.1135    6.2469    0.0000 N   0  0  0  0  0  0  0  0  0  0  0  0
    0.7431    6.8570    0.0000 H   0  0  0  0  0  0  0  0  0  0  0  0
    2.2703    4.7551    0.0000 C   0  0  0  0  0  0  0  0  0  0  0  0
    1.0567    3.8735    0.0000 N   0  0  0  0  0  0  0  0  0  0  0  0
   -0.3136    4.4836    0.0000 H   0  0  0  0  0  0  0  0  0  0  0  0
    1.2135    2.3817    0.0000 N   0  0  0  0  0  0  0  0  0  0  0  0
    2.5838    1.7716    0.0000 H   0  0  0  0  0  0  0  0  0  0  0  0
    0.0000    1.5000    0.0000 C   0  0  0  0  0  0  0  0  0  0  0  0
    0.0000    0.0000    0.0000 N   0  0  0  0  0  0  0  0  0  0  0  0
   -1.4266   -0.4635    0.0000 C   0  0  0  0  0  0  0  0  0  0  0  0
   -1.8901   -1.8901    0.0000 C   0  0  0  0  0  0  0  0  0  0  0  0
   -0.8864   -3.0048    0.0000 C   0  0  0  0  0  0  0  0  0  0  0  0
    0.5808   -2.6930    0.0000 H   0  0  0  0  0  0  0  0  0  0  0  0
   -1.3499   -4.4314    0.0000 C   0  0  0  0  0  0  0  0  0  0  0  0
   -0.3462   -5.5461    0.0000 H   0  0  0  0  0  0  0  0  0  0  0  0
   -2.8172   -4.7433    0.0000 C   0  0  0  0  0  0  0  0  0  0  0  0
   -3.2807   -6.1699    0.0000 H   0  0  0  0  0  0  0  0  0  0  0  0
   -3.8209   -3.6286    0.0000 C   0  0  0  0  0  0  0  0  0  0  0  0
   -5.2881   -3.9404    0.0000 H   0  0  0  0  0  0  0  0  0  0  0  0
   -3.3573   -2.2020    0.0000 C   0  0  0  0  0  0  0  0  0  0  0  0
   -4.3610   -1.0873    0.0000 H   0  0  0  0  0  0  0  0  0  0  0  0
   -2.3083    0.7500    0.0000 C   0  0  0  0  0  0  0  0  0  0  0  0
   -3.8083    0.7500    0.0000 H   0  0  0  0  0  0  0  0  0  0  0  0
   -1.4266    1.9635    0.0000 S   0  0  0  0  0  0  0  0  0  0  0  0
    3.6406    4.1450    0.0000 S   0  0  0  0  0  0  0  0  0  0  0  0
  2  1  1  0  0  0  0 
  3  2  1  0  0  0  0 
  4  2  2  0  0  0  0 
  5  4  1  0  0  0  0 
  6  4  1  0  0  0  0 
  7  6  1  0  0  0  0 
  8  6  1  0  0  0  0 
  9  6  1  0  0  0  0 
 10  9  1  0  0  0  0 
 11  9  1  0  0  0  0 
 12 11  1  0  0  0  0 
 13 12  1  0  0  0  0 
 14 12  1  0  0  0  0 
 15 14  1  0  0  0  0 
 16 14  1  0  0  0  0 
 17 16  2  0  0  0  0 
 18 17  1  0  0  0  0 
 19 18  1  0  0  0  0 
 20 19  2  0  0  0  0 
 21 20  1  0  0  0  0 
 22 20  1  0  0  0  0 
 23 22  1  0  0  0  0 
 24 22  2  0  0  0  0 
 25 24  1  0  0  0  0 
 26 24  1  0  0  0  0 
 27 26  1  0  0  0  0 
 28 26  2  0  0  0  0 
 28 19  1  0  0  0  0 
 29 28  1  0  0  0  0 
 30 18  2  0  0  0  0 
 31 30  1  0  0  0  0 
 32 30  1  0  0  0  0 
 32 16  1  0  0  0  0 
 33 11  2  0  0  0  0 
M  END
> <id>
8486576

> <origin>
MetFrag

> <smiles>
[H]c1c(nc(N([H])N([H])C(N([H])C([H])([H])C([H])=C([H])[H])=S)s1)c2c([H])c([H])c([H])c([H])c2([H])

> <name>
1-[(4-phenyl-1,3-thiazol-2-yl)amino]-3-prop-2-enylthiourea

> <peaksExplained>
1

> <tiedRank>
36

> <URL>
http://pubchem.ncbi.nlm.nih.gov/summary/summary.cgi?cid=8486576

> <newscore>
0.5020359357879479

> <clusterRank>
36

> <origscore>
0.11624999999999999

$$$$

  CDK     1213131428

 33 34  0  0  0  0  0  0  0  0999 V2000
    5.4405   11.8755    0.0000 H   0  0  0  0  0  0  0  0  0  0  0  0
    4.2269   10.9938    0.0000 C   0  0  0  0  0  0  0  0  0  0  0  0
    2.8566   11.6039    0.0000 H   0  0  0  0  0  0  0  0  0  0  0  0
    4.3837    9.5021    0.0000 C   0  0  0  0  0  0  0  0  0  0  0  0
    5.7540    8.8920    0.0000 H   0  0  0  0  0  0  0  0  0  0  0  0
    3.1702    8.6204    0.0000 C   0  0  0  0  0  0  0  0  0  0  0  0
    2.5126    9.9686    0.0000 H   0  0  0  0  0  0  0  0  0  0  0  0
    1.7283    8.2069    0.0000 H   0  0  0  0  0  0  0  0  0  0  0  0
    3.3270    7.1286    0.0000 N   0  0  0  0  0  0  0  0  0  0  0  0
    4.6973    6.5185    0.0000 H   0  0  0  0  0  0  0  0  0  0  0  0
    2.1135    6.2469    0.0000 C   0  0  0  0  0  0  0  0  0  0  0  0
    2.2703    4.7551    0.0000 N   0  0  0  0  0  0  0  0  0  0  0  0
    3.6406    4.1450    0.0000 H   0  0  0  0  0  0  0  0  0  0  0  0
    1.0567    3.8735    0.0000 N   0  0  0  0  0  0  0  0  0  0  0  0
    1.2135    2.3817    0.0000 C   0  0  0  0  0  0  0  0  0  0  0  0
    0.0000    1.5000    0.0000 C   0  0  0  0  0  0  0  0  0  0  0  0
    0.0000    0.0000    0.0000 N   0  0  0  0  0  0  0  0  0  0  0  0
   -1.4266   -0.4635    0.0000 C   0  0  0  0  0  0  0  0  0  0  0  0
   -2.0367   -1.8338    0.0000 C   0  0  0  0  0  0  0  0  0  0  0  0
   -1.1550   -3.0474    0.0000 H   0  0  0  0  0  0  0  0  0  0  0  0
   -3.5285   -1.9906    0.0000 C   0  0  0  0  0  0  0  0  0  0  0  0
   -4.1386   -3.3610    0.0000 H   0  0  0  0  0  0  0  0  0  0  0  0
   -4.4102   -0.7771    0.0000 C   0  0  0  0  0  0  0  0  0  0  0  0
   -5.9019   -0.9339    0.0000 H   0  0  0  0  0  0  0  0  0  0  0  0
   -3.8000    0.5932    0.0000 C   0  0  0  0  0  0  0  0  0  0  0  0
   -4.6817    1.8067    0.0000 H   0  0  0  0  0  0  0  0  0  0  0  0
   -2.3083    0.7500    0.0000 C   0  0  0  0  0  0  0  0  0  0  0  0
   -1.4266    1.9635    0.0000 S   0  0  0  0  0  0  0  0  0  0  0  0
    2.5838    1.7716    0.0000 C   0  0  0  0  0  0  0  0  0  0  0  0
    2.7406    0.2798    0.0000 H   0  0  0  0  0  0  0  0  0  0  0  0
    4.0802    1.6669    0.0000 H   0  0  0  0  0  0  0  0  0  0  0  0
    2.9467    3.2270    0.0000 H   0  0  0  0  0  0  0  0  0  0  0  0
    0.7431    6.8570    0.0000 S   0  0  0  0  0  0  0  0  0  0  0  0
  2  1  1  0  0  0  0 
  3  2  1  0  0  0  0 
  4  2  2  0  0  0  0 
  5  4  1  0  0  0  0 
  6  4  1  0  0  0  0 
  7  6  1  0  0  0  0 
  8  6  1  0  0  0  0 
  9  6  1  0  0  0  0 
 10  9  1  0  0  0  0 
 11  9  1  0  0  0  0 
 12 11  1  0  0  0  0 
 13 12  1  0  0  0  0 
 14 12  1  0  0  0  0 
 15 14  2  0  0  0  0 
 16 15  1  0  0  0  0 
 17 16  2  0  0  0  0 
 18 17  1  0  0  0  0 
 19 18  2  0  0  0  0 
 20 19  1  0  0  0  0 
 21 19  1  0  0  0  0 
 22 21  1  0  0  0  0 
 23 21  2  0  0  0  0 
 24 23  1  0  0  0  0 
 25 23  1  0  0  0  0 
 26 25  1  0  0  0  0 
 27 25  2  0  0  0  0 
 27 18  1  0  0  0  0 
 28 27  1  0  0  0  0 
 28 16  1  0  0  0  0 
 29 15  1  0  0  0  0 
 30 29  1  0  0  0  0 
 31 29  1  0  0  0  0 
 32 29  1  0  0  0  0 
 33 11  2  0  0  0  0 
M  END
> <id>
8379457

> <origin>
MetFrag

> <smiles>
[H]C([H])=C([H])C([H])([H])N([H])C(N([H])N=C(c2nc1c(c([H])c([H])c([H])c1([H]))s2)C([H])([H])[H])=S

> <name>
1-[(Z)-1-(1,3-benzothiazol-2-yl)ethylideneamino]-3-prop-2-enylthiourea

> <peaksExplained>
1

> <tiedRank>
37

> <URL>
http://pubchem.ncbi.nlm.nih.gov/summary/summary.cgi?cid=8379457

> <newscore>
0.5014934639477927

> <clusterRank>
37

> <origscore>
0.11624999999999999

$$$$

  CDK     1213131428

 33 35  0  0  0  0  0  0  0  0999 V2000
    1.2179    8.3087    0.0000 H   0  0  0  0  0  0  0  0  0  0  0  0
    1.0091    6.8233    0.0000 C   0  0  0  0  0  0  0  0  0  0  0  0
    2.0881    5.7813    0.0000 C   0  0  0  0  0  0  0  0  0  0  0  0
    3.5653    6.0417    0.0000 H   0  0  0  0  0  0  0  0  0  0  0  0
    1.4306    4.4331    0.0000 C   0  0  0  0  0  0  0  0  0  0  0  0
    2.1348    3.1087    0.0000 C   0  0  0  0  0  0  0  0  0  0  0  0
    3.6202    2.8999    0.0000 N   0  0  0  0  0  0  0  0  0  0  0  0
    3.8806    1.4227    0.0000 N   0  0  0  0  0  0  0  0  0  0  0  0
    2.5562    0.7185    0.0000 C   0  0  0  0  0  0  0  0  0  0  0  0
    1.4772    1.7605    0.0000 N   0  0  0  0  0  0  0  0  0  0  0  0
    0.0000    1.5000    0.0000 C   0  0  0  0  0  0  0  0  0  0  0  0
   -0.5130    2.9095    0.0000 H   0  0  0  0  0  0  0  0  0  0  0  0
    0.0000    0.0000    0.0000 C   0  0  0  0  0  0  0  0  0  0  0  0
   -0.5130   -1.4095    0.0000 H   0  0  0  0  0  0  0  0  0  0  0  0
    1.4772   -0.2605    0.0000 H   0  0  0  0  0  0  0  0  0  0  0  0
   -1.2990    0.7500    0.0000 C   0  0  0  0  0  0  0  0  0  0  0  0
   -2.2632    1.8991    0.0000 H   0  0  0  0  0  0  0  0  0  0  0  0
   -2.2632   -0.3991    0.0000 H   0  0  0  0  0  0  0  0  0  0  0  0
    2.3475   -0.7669    0.0000 S   0  0  0  0  0  0  0  0  0  0  0  0
    3.5295   -1.6904    0.0000 C   0  0  0  0  0  0  0  0  0  0  0  0
    4.9561   -2.1539    0.0000 H   0  0  0  0  0  0  0  0  0  0  0  0
    4.2337   -0.3660    0.0000 H   0  0  0  0  0  0  0  0  0  0  0  0
    3.3207   -3.1758    0.0000 C   0  0  0  0  0  0  0  0  0  0  0  0
    1.8941   -2.7123    0.0000 H   0  0  0  0  0  0  0  0  0  0  0  0
    2.6165   -4.5002    0.0000 C   0  0  0  0  0  0  0  0  0  0  0  0
    1.9123   -5.8247    0.0000 N   0  0  0  0  0  0  0  0  0  0  0  0
    4.5027   -4.0993    0.0000 C   0  0  0  0  0  0  0  0  0  0  0  0
    4.2940   -5.5847    0.0000 H   0  0  0  0  0  0  0  0  0  0  0  0
    5.9293   -4.5628    0.0000 H   0  0  0  0  0  0  0  0  0  0  0  0
    5.2069   -2.7749    0.0000 H   0  0  0  0  0  0  0  0  0  0  0  0
   -0.0548    4.6418    0.0000 S   0  0  0  0  0  0  0  0  0  0  0  0
   -0.3153    6.1191    0.0000 C   0  0  0  0  0  0  0  0  0  0  0  0
   -1.6635    6.7766    0.0000 H   0  0  0  0  0  0  0  0  0  0  0  0
  2  1  1  0  0  0  0 
  3  2  1  0  0  0  0 
  4  3  1  0  0  0  0 
  5  3  2  0  0  0  0 
  6  5  1  0  0  0  0 
  7  6  2  0  0  0  0 
  8  7  1  0  0  0  0 
  9  8  2  0  0  0  0 
 10  9  1  0  0  0  0 
 10  6  1  0  0  0  0 
 11 10  1  0  0  0  0 
 12 11  1  0  0  0  0 
 13 11  1  0  0  0  0 
 14 13  1  0  0  0  0 
 15 13  1  0  0  0  0 
 16 13  1  0  0  0  0 
 16 11  1  0  0  0  0 
 17 16  1  0  0  0  0 
 18 16  1  0  0  0  0 
 19  9  1  0  0  0  0 
 20 19  1  0  0  0  0 
 21 20  1  0  0  0  0 
 22 20  1  0  0  0  0 
 23 20  1  0  0  0  0 
 24 23  1  0  0  0  0 
 25 23  1  0  0  0  0 
 26 25  3  0  0  0  0 
 27 23  1  0  0  0  0 
 28 27  1  0  0  0  0 
 29 27  1  0  0  0  0 
 30 27  1  0  0  0  0 
 31  5  1  0  0  0  0 
 32 31  1  0  0  0  0 
 32  2  2  0  0  0  0 
 33 32  1  0  0  0  0 
M  END
> <id>
8878981

> <origin>
MetFrag

> <smiles>
[H]c3c(c1nnc(n1C2([H])(C([H])([H])C2([H])([H])))SC([H])([H])C([H])(C#N)C([H])([H])[H])sc([H])c3([H])

> <name>
(2R)-3-[(4-cyclopropyl-5-thiophen-2-yl-1,2,4-triazol-3-yl)sulfanyl]-2-methylpropanenitrile

> <peaksExplained>
1

> <tiedRank>
38

> <URL>
http://pubchem.ncbi.nlm.nih.gov/summary/summary.cgi?cid=8878981

> <newscore>
0.5013396054435091

> <clusterRank>
38

> <origscore>
0.11624999999999999

$$$$

  CDK     1213131428

 36 37  0  0  0  0  0  0  0  0999 V2000
    3.8652    2.3999    0.0000 H   0  0  0  0  0  0  0  0  0  0  0  0
    2.3735    2.5567    0.0000 O   0  0  0  0  0  0  0  0  0  0  0  0
    1.4918    1.3432    0.0000 C   0  0  0  0  0  0  0  0  0  0  0  0
    2.1019   -0.0271    0.0000 O   0  0  0  0  0  0  0  0  0  0  0  0
    0.0000    1.5000    0.0000 C   0  0  0  0  0  0  0  0  0  0  0  0
    0.3119    2.9672    0.0000 H   0  0  0  0  0  0  0  0  0  0  0  0
    0.0000    0.0000    0.0000 C   0  0  0  0  0  0  0  0  0  0  0  0
    0.3119   -1.4672    0.0000 H   0  0  0  0  0  0  0  0  0  0  0  0
    1.4918    0.1568    0.0000 H   0  0  0  0  0  0  0  0  0  0  0  0
   -1.4266   -0.4635    0.0000 C   0  0  0  0  0  0  0  0  0  0  0  0
   -2.7256   -1.2135    0.0000 H   0  0  0  0  0  0  0  0  0  0  0  0
   -0.8165   -1.8338    0.0000 H   0  0  0  0  0  0  0  0  0  0  0  0
   -2.3083    0.7500    0.0000 C   0  0  0  0  0  0  0  0  0  0  0  0
   -3.4230    1.7537    0.0000 H   0  0  0  0  0  0  0  0  0  0  0  0
   -3.4230   -0.2537    0.0000 C   0  0  0  0  0  0  0  0  0  0  0  0
   -3.1111   -1.7209    0.0000 O   0  0  0  0  0  0  0  0  0  0  0  0
   -4.8496    0.2098    0.0000 O   0  0  0  0  0  0  0  0  0  0  0  0
   -5.9643   -0.7939    0.0000 C   0  0  0  0  0  0  0  0  0  0  0  0
   -6.6685   -2.1183    0.0000 H   0  0  0  0  0  0  0  0  0  0  0  0
   -4.7823   -1.7174    0.0000 H   0  0  0  0  0  0  0  0  0  0  0  0
   -7.3909   -0.3303    0.0000 C   0  0  0  0  0  0  0  0  0  0  0  0
   -8.5056   -1.3340    0.0000 H   0  0  0  0  0  0  0  0  0  0  0  0
   -6.6867    0.9941    0.0000 H   0  0  0  0  0  0  0  0  0  0  0  0
   -8.5729    0.5932    0.0000 H   0  0  0  0  0  0  0  0  0  0  0  0
   -1.4266    1.9635    0.0000 C   0  0  0  0  0  0  0  0  0  0  0  0
   -0.8165    3.3338    0.0000 H   0  0  0  0  0  0  0  0  0  0  0  0
   -2.7256    2.7135    0.0000 C   0  0  0  0  0  0  0  0  0  0  0  0
   -1.8439    3.9271    0.0000 H   0  0  0  0  0  0  0  0  0  0  0  0
   -3.3357    1.3432    0.0000 S   0  0  0  0  0  0  0  0  0  0  0  0
   -4.8275    1.5000    0.0000 C   0  0  0  0  0  0  0  0  0  0  0  0
   -6.3193    1.3432    0.0000 H   0  0  0  0  0  0  0  0  0  0  0  0
   -4.8275   -0.0000    0.0000 H   0  0  0  0  0  0  0  0  0  0  0  0
   -5.1394    2.9672    0.0000 C   0  0  0  0  0  0  0  0  0  0  0  0
   -5.7495    4.3375    0.0000 H   0  0  0  0  0  0  0  0  0  0  0  0
   -6.5660    2.5037    0.0000 H   0  0  0  0  0  0  0  0  0  0  0  0
   -3.8403    3.7172    0.0000 S   0  0  0  0  0  0  0  0  0  0  0  0
  2  1  1  0  0  0  0 
  3  2  1  0  0  0  0 
  4  3  2  0  0  0  0 
  5  3  1  0  0  0  0 
  6  5  1  0  0  0  0 
  7  5  1  0  0  0  0 
  8  7  1  0  0  0  0 
  9  7  1  0  0  0  0 
 10  7  1  0  0  0  0 
 11 10  1  0  0  0  0 
 12 10  1  0  0  0  0 
 13 10  1  0  0  0  0 
 14 13  1  0  0  0  0 
 15 13  1  0  0  0  0 
 16 15  2  0  0  0  0 
 17 15  1  0  0  0  0 
 18 17  1  0  0  0  0 
 19 18  1  0  0  0  0 
 20 18  1  0  0  0  0 
 21 18  1  0  0  0  0 
 22 21  1  0  0  0  0 
 23 21  1  0  0  0  0 
 24 21  1  0  0  0  0 
 25 13  1  0  0  0  0 
 25  5  1  0  0  0  0 
 26 25  1  0  0  0  0 
 27 25  1  0  0  0  0 
 28 27  1  0  0  0  0 
 29 27  1  0  0  0  0 
 30 29  1  0  0  0  0 
 31 30  1  0  0  0  0 
 32 30  1  0  0  0  0 
 33 30  1  0  0  0  0 
 34 33  1  0  0  0  0 
 35 33  1  0  0  0  0 
 36 33  1  0  0  0  0 
 36 27  1  0  0  0  0 
M  END
> <id>
25149473

> <origin>
MetFrag

> <smiles>
[H]OC(=O)C1([H])(C([H])(C([H])(C(=O)OC([H])([H])C([H])([H])[H])C([H])([H])C1([H])([H]))C2([H])(SC([H])([H])C([H])([H])S2))

> <name>
(1R,2R,3S)-2-(1,3-dithiolan-2-yl)-3-ethoxycarbonylcyclopentane-1-carboxylic acid

> <peaksExplained>
0

> <tiedRank>
39

> <URL>
http://pubchem.ncbi.nlm.nih.gov/summary/summary.cgi?cid=25149473

> <newscore>
0.49853090528021476

> <clusterRank>
39

> <origscore>
0.0

$$$$

  CDK     1213131428

 33 36  0  0  0  0  0  0  0  0999 V2000
   -2.2243   12.7187    0.0000 H   0  0  0  0  0  0  0  0  0  0  0  0
   -2.0675   11.2269    0.0000 C   0  0  0  0  0  0  0  0  0  0  0  0
   -0.7685   10.4769    0.0000 C   0  0  0  0  0  0  0  0  0  0  0  0
    0.6018   11.0870    0.0000 H   0  0  0  0  0  0  0  0  0  0  0  0
   -1.0803    9.0097    0.0000 C   0  0  0  0  0  0  0  0  0  0  0  0
   -0.0766    7.8949    0.0000 C   0  0  0  0  0  0  0  0  0  0  0  0
    1.2478    7.1907    0.0000 H   0  0  0  0  0  0  0  0  0  0  0  0
    0.8468    9.0770    0.0000 H   0  0  0  0  0  0  0  0  0  0  0  0
   -0.5402    6.4684    0.0000 C   0  0  0  0  0  0  0  0  0  0  0  0
   -1.8646    7.1726    0.0000 H   0  0  0  0  0  0  0  0  0  0  0  0
   -1.4637    5.2863    0.0000 H   0  0  0  0  0  0  0  0  0  0  0  0
    0.4635    5.3536    0.0000 C   0  0  0  0  0  0  0  0  0  0  0  0
    1.7879    4.6494    0.0000 H   0  0  0  0  0  0  0  0  0  0  0  0
    1.3870    6.5357    0.0000 H   0  0  0  0  0  0  0  0  0  0  0  0
    0.0000    3.9271    0.0000 C   0  0  0  0  0  0  0  0  0  0  0  0
    0.8817    2.7135    0.0000 N   0  0  0  0  0  0  0  0  0  0  0  0
    0.0000    1.5000    0.0000 N   0  0  0  0  0  0  0  0  0  0  0  0
    0.0000    0.0000    0.0000 C   0  0  0  0  0  0  0  0  0  0  0  0
   -1.4266   -0.4635    0.0000 N   0  0  0  0  0  0  0  0  0  0  0  0
   -2.3083    0.7500    0.0000 N   0  0  0  0  0  0  0  0  0  0  0  0
   -1.4266    1.9635    0.0000 C   0  0  0  0  0  0  0  0  0  0  0  0
   -1.4266    3.4635    0.0000 S   0  0  0  0  0  0  0  0  0  0  0  0
    1.2135   -0.8817    0.0000 C   0  0  0  0  0  0  0  0  0  0  0  0
    0.5560   -2.2299    0.0000 H   0  0  0  0  0  0  0  0  0  0  0  0
    2.2925    0.1603    0.0000 C   0  0  0  0  0  0  0  0  0  0  0  0
    3.6629    0.7704    0.0000 H   0  0  0  0  0  0  0  0  0  0  0  0
    1.4537    1.4039    0.0000 H   0  0  0  0  0  0  0  0  0  0  0  0
    2.6554   -1.2951    0.0000 C   0  0  0  0  0  0  0  0  0  0  0  0
    2.4986   -2.7869    0.0000 H   0  0  0  0  0  0  0  0  0  0  0  0
    4.1518   -1.1905    0.0000 H   0  0  0  0  0  0  0  0  0  0  0  0
   -2.5721    8.8529    0.0000 S   0  0  0  0  0  0  0  0  0  0  0  0
   -3.1822   10.2232    0.0000 C   0  0  0  0  0  0  0  0  0  0  0  0
   -4.6494   10.5350    0.0000 H   0  0  0  0  0  0  0  0  0  0  0  0
  2  1  1  0  0  0  0 
  3  2  1  0  0  0  0 
  4  3  1  0  0  0  0 
  5  3  2  0  0  0  0 
  6  5  1  0  0  0  0 
  7  6  1  0  0  0  0 
  8  6  1  0  0  0  0 
  9  6  1  0  0  0  0 
 10  9  1  0  0  0  0 
 11  9  1  0  0  0  0 
 12  9  1  0  0  0  0 
 13 12  1  0  0  0  0 
 14 12  1  0  0  0  0 
 15 12  1  0  0  0  0 
 16 15  2  0  0  0  0 
 17 16  1  0  0  0  0 
 18 17  1  0  0  0  0 
 19 18  2  0  0  0  0 
 20 19  1  0  0  0  0 
 21 20  2  0  0  0  0 
 21 17  1  0  0  0  0 
 22 21  1  0  0  0  0 
 22 15  1  0  0  0  0 
 23 18  1  0  0  0  0 
 24 23  1  0  0  0  0 
 25 23  1  0  0  0  0 
 26 25  1  0  0  0  0 
 27 25  1  0  0  0  0 
 28 25  1  0  0  0  0 
 28 23  1  0  0  0  0 
 29 28  1  0  0  0  0 
 30 28  1  0  0  0  0 
 31  5  1  0  0  0  0 
 32 31  1  0  0  0  0 
 32  2  2  0  0  0  0 
 33 32  1  0  0  0  0 
M  END
> <id>
56880119

> <origin>
MetFrag

> <smiles>
[H]c4c([H])c(C([H])([H])C([H])([H])C([H])([H])c2nn1c(nnc1s2)C3([H])(C([H])([H])C3([H])([H])))sc4([H])

> <name>
56880119

> <peaksExplained>
1

> <tiedRank>
40

> <URL>
http://pubchem.ncbi.nlm.nih.gov/summary/summary.cgi?cid=56880119

> <newscore>
0.4982626624686665

> <clusterRank>
40

> <origscore>
0.10525

$$$$

  CDK     1213131428

 33 35  0  0  0  0  0  0  0  0999 V2000
    5.4754    7.8271    0.0000 H   0  0  0  0  0  0  0  0  0  0  0  0
    4.0847    7.2652    0.0000 C   0  0  0  0  0  0  0  0  0  0  0  0
    3.7218    5.8098    0.0000 C   0  0  0  0  0  0  0  0  0  0  0  0
    4.6860    4.6607    0.0000 H   0  0  0  0  0  0  0  0  0  0  0  0
    2.2254    5.7052    0.0000 C   0  0  0  0  0  0  0  0  0  0  0  0
    1.4306    4.4331    0.0000 C   0  0  0  0  0  0  0  0  0  0  0  0
    0.3158    5.4368    0.0000 H   0  0  0  0  0  0  0  0  0  0  0  0
    0.2485    3.5096    0.0000 H   0  0  0  0  0  0  0  0  0  0  0  0
    2.1348    3.1087    0.0000 C   0  0  0  0  0  0  0  0  0  0  0  0
    3.6202    2.8999    0.0000 N   0  0  0  0  0  0  0  0  0  0  0  0
    3.8806    1.4227    0.0000 N   0  0  0  0  0  0  0  0  0  0  0  0
    2.5562    0.7185    0.0000 C   0  0  0  0  0  0  0  0  0  0  0  0
    1.4772    1.7605    0.0000 N   0  0  0  0  0  0  0  0  0  0  0  0
    0.0000    1.5000    0.0000 C   0  0  0  0  0  0  0  0  0  0  0  0
   -0.5130    2.9095    0.0000 H   0  0  0  0  0  0  0  0  0  0  0  0
    0.0000    0.0000    0.0000 C   0  0  0  0  0  0  0  0  0  0  0  0
   -0.5130   -1.4095    0.0000 H   0  0  0  0  0  0  0  0  0  0  0  0
    1.4772   -0.2605    0.0000 H   0  0  0  0  0  0  0  0  0  0  0  0
   -1.2990    0.7500    0.0000 C   0  0  0  0  0  0  0  0  0  0  0  0
   -2.2632    1.8991    0.0000 H   0  0  0  0  0  0  0  0  0  0  0  0
   -2.2632   -0.3991    0.0000 H   0  0  0  0  0  0  0  0  0  0  0  0
    2.3475   -0.7669    0.0000 S   0  0  0  0  0  0  0  0  0  0  0  0
    3.5295   -1.6904    0.0000 C   0  0  0  0  0  0  0  0  0  0  0  0
    4.9561   -2.1539    0.0000 H   0  0  0  0  0  0  0  0  0  0  0  0
    4.2337   -0.3660    0.0000 H   0  0  0  0  0  0  0  0  0  0  0  0
    3.3207   -3.1758    0.0000 C   0  0  0  0  0  0  0  0  0  0  0  0
    1.8941   -2.7123    0.0000 H   0  0  0  0  0  0  0  0  0  0  0  0
    2.6165   -4.5002    0.0000 H   0  0  0  0  0  0  0  0  0  0  0  0
    4.5027   -4.0993    0.0000 C   0  0  0  0  0  0  0  0  0  0  0  0
    5.6848   -5.0228    0.0000 N   0  0  0  0  0  0  0  0  0  0  0  0
    1.6635    7.0959    0.0000 S   0  0  0  0  0  0  0  0  0  0  0  0
    2.8126    8.0601    0.0000 C   0  0  0  0  0  0  0  0  0  0  0  0
    2.7080    9.5565    0.0000 H   0  0  0  0  0  0  0  0  0  0  0  0
  2  1  1  0  0  0  0 
  3  2  1  0  0  0  0 
  4  3  1  0  0  0  0 
  5  3  2  0  0  0  0 
  6  5  1  0  0  0  0 
  7  6  1  0  0  0  0 
  8  6  1  0  0  0  0 
  9  6  1  0  0  0  0 
 10  9  2  0  0  0  0 
 11 10  1  0  0  0  0 
 12 11  2  0  0  0  0 
 13 12  1  0  0  0  0 
 13  9  1  0  0  0  0 
 14 13  1  0  0  0  0 
 15 14  1  0  0  0  0 
 16 14  1  0  0  0  0 
 17 16  1  0  0  0  0 
 18 16  1  0  0  0  0 
 19 16  1  0  0  0  0 
 19 14  1  0  0  0  0 
 20 19  1  0  0  0  0 
 21 19  1  0  0  0  0 
 22 12  1  0  0  0  0 
 23 22  1  0  0  0  0 
 24 23  1  0  0  0  0 
 25 23  1  0  0  0  0 
 26 23  1  0  0  0  0 
 27 26  1  0  0  0  0 
 28 26  1  0  0  0  0 
 29 26  1  0  0  0  0 
 30 29  3  0  0  0  0 
 31  5  1  0  0  0  0 
 32 31  1  0  0  0  0 
 32  2  2  0  0  0  0 
 33 32  1  0  0  0  0 
M  END
> <id>
8879067

> <origin>
MetFrag

> <smiles>
[H]c3c([H])c(C([H])([H])c1nnc(n1C2([H])(C([H])([H])C2([H])([H])))SC([H])([H])C([H])([H])C#N)sc3([H])

> <name>
3-[[4-cyclopropyl-5-(thiophen-2-ylmethyl)-1,2,4-triazol-3-yl]sulfanyl]propanenitrile

> <peaksExplained>
1

> <tiedRank>
41

> <URL>
http://pubchem.ncbi.nlm.nih.gov/summary/summary.cgi?cid=8879067

> <newscore>
0.4982622498304456

> <clusterRank>
41

> <origscore>
0.11624999999999999

$$$$

  CDK     1213131428

 33 34  0  0  0  0  0  0  0  0999 V2000
   13.9760    5.2313    0.0000 H   0  0  0  0  0  0  0  0  0  0  0  0
   12.6056    5.8414    0.0000 C   0  0  0  0  0  0  0  0  0  0  0  0
   12.4488    7.3332    0.0000 H   0  0  0  0  0  0  0  0  0  0  0  0
   11.3921    4.9598    0.0000 C   0  0  0  0  0  0  0  0  0  0  0  0
   11.5489    3.4680    0.0000 H   0  0  0  0  0  0  0  0  0  0  0  0
   10.0218    5.5699    0.0000 C   0  0  0  0  0  0  0  0  0  0  0  0
   10.8606    6.8134    0.0000 H   0  0  0  0  0  0  0  0  0  0  0  0
    8.9428    6.6118    0.0000 H   0  0  0  0  0  0  0  0  0  0  0  0
    8.8083    4.6882    0.0000 N   0  0  0  0  0  0  0  0  0  0  0  0
    8.9651    3.1964    0.0000 H   0  0  0  0  0  0  0  0  0  0  0  0
    7.4379    5.2983    0.0000 C   0  0  0  0  0  0  0  0  0  0  0  0
    6.2244    4.4166    0.0000 N   0  0  0  0  0  0  0  0  0  0  0  0
    6.3812    2.9248    0.0000 H   0  0  0  0  0  0  0  0  0  0  0  0
    4.8541    5.0267    0.0000 C   0  0  0  0  0  0  0  0  0  0  0  0
    5.6929    6.2703    0.0000 H   0  0  0  0  0  0  0  0  0  0  0  0
    3.7751    6.0687    0.0000 H   0  0  0  0  0  0  0  0  0  0  0  0
    3.6406    4.1450    0.0000 C   0  0  0  0  0  0  0  0  0  0  0  0
    3.7974    2.6533    0.0000 C   0  0  0  0  0  0  0  0  0  0  0  0
    5.1677    2.0431    0.0000 H   0  0  0  0  0  0  0  0  0  0  0  0
    2.5838    1.7716    0.0000 C   0  0  0  0  0  0  0  0  0  0  0  0
    2.7406    0.2798    0.0000 H   0  0  0  0  0  0  0  0  0  0  0  0
    1.2135    2.3817    0.0000 C   0  0  0  0  0  0  0  0  0  0  0  0
    1.0567    3.8735    0.0000 C   0  0  0  0  0  0  0  0  0  0  0  0
   -0.3136    4.4836    0.0000 H   0  0  0  0  0  0  0  0  0  0  0  0
    2.2703    4.7551    0.0000 C   0  0  0  0  0  0  0  0  0  0  0  0
    2.1135    6.2469    0.0000 H   0  0  0  0  0  0  0  0  0  0  0  0
    0.0000    1.5000    0.0000 C   0  0  0  0  0  0  0  0  0  0  0  0
    0.0000    0.0000    0.0000 N   0  0  0  0  0  0  0  0  0  0  0  0
   -1.4266   -0.4635    0.0000 N   0  0  0  0  0  0  0  0  0  0  0  0
   -2.3083    0.7500    0.0000 S   0  0  0  0  0  0  0  0  0  0  0  0
   -1.4266    1.9635    0.0000 C   0  0  0  0  0  0  0  0  0  0  0  0
   -1.8901    3.3901    0.0000 H   0  0  0  0  0  0  0  0  0  0  0  0
    7.2812    6.7901    0.0000 S   0  0  0  0  0  0  0  0  0  0  0  0
  2  1  1  0  0  0  0 
  3  2  1  0  0  0  0 
  4  2  2  0  0  0  0 
  5  4  1  0  0  0  0 
  6  4  1  0  0  0  0 
  7  6  1  0  0  0  0 
  8  6  1  0  0  0  0 
  9  6  1  0  0  0  0 
 10  9  1  0  0  0  0 
 11  9  1  0  0  0  0 
 12 11  1  0  0  0  0 
 13 12  1  0  0  0  0 
 14 12  1  0  0  0  0 
 15 14  1  0  0  0  0 
 16 14  1  0  0  0  0 
 17 14  1  0  0  0  0 
 18 17  2  0  0  0  0 
 19 18  1  0  0  0  0 
 20 18  1  0  0  0  0 
 21 20  1  0  0  0  0 
 22 20  2  0  0  0  0 
 23 22  1  0  0  0  0 
 24 23  1  0  0  0  0 
 25 23  2  0  0  0  0 
 25 17  1  0  0  0  0 
 26 25  1  0  0  0  0 
 27 22  1  0  0  0  0 
 28 27  1  0  0  0  0 
 29 28  2  0  0  0  0 
 30 29  1  0  0  0  0 
 31 30  1  0  0  0  0 
 31 27  2  0  0  0  0 
 32 31  1  0  0  0  0 
 33 11  2  0  0  0  0 
M  END
> <id>
2739235

> <origin>
MetFrag

> <smiles>
[H]c1c(nns1)c2c([H])c([H])c(c([H])c2([H]))C([H])([H])N([H])C(N([H])C([H])([H])C([H])=C([H])[H])=S

> <name>
1-prop-2-enyl-3-[[4-(thiadiazol-4-yl)phenyl]methyl]thiourea

> <peaksExplained>
1

> <tiedRank>
42

> <URL>
http://pubchem.ncbi.nlm.nih.gov/summary/summary.cgi?cid=2739235

> <newscore>
0.49811939806916167

> <clusterRank>
42

> <origscore>
0.11624999999999999

$$$$

  CDK     1213131428

 33 35  0  0  0  0  0  0  0  0999 V2000
    3.8971   -0.7500    0.0000 H   0  0  0  0  0  0  0  0  0  0  0  0
    2.5981   -0.0000    0.0000 C   0  0  0  0  0  0  0  0  0  0  0  0
    2.5981    1.5000    0.0000 C   0  0  0  0  0  0  0  0  0  0  0  0
    3.8971    2.2500    0.0000 H   0  0  0  0  0  0  0  0  0  0  0  0
    1.2990    2.2500    0.0000 C   0  0  0  0  0  0  0  0  0  0  0  0
    1.2990    3.7500    0.0000 H   0  0  0  0  0  0  0  0  0  0  0  0
    0.0000    1.5000    0.0000 C   0  0  0  0  0  0  0  0  0  0  0  0
    0.0000    0.0000    0.0000 C   0  0  0  0  0  0  0  0  0  0  0  0
   -1.4266   -0.4635    0.0000 N   0  0  0  0  0  0  0  0  0  0  0  0
   -2.3083    0.7500    0.0000 C   0  0  0  0  0  0  0  0  0  0  0  0
   -3.8083    0.7500    0.0000 C   0  0  0  0  0  0  0  0  0  0  0  0
   -3.5478    2.2272    0.0000 H   0  0  0  0  0  0  0  0  0  0  0  0
   -5.2178    1.2630    0.0000 H   0  0  0  0  0  0  0  0  0  0  0  0
   -4.5583   -0.5490    0.0000 S   0  0  0  0  0  0  0  0  0  0  0  0
   -6.0583   -0.5490    0.0000 C   0  0  0  0  0  0  0  0  0  0  0  0
   -6.9399   -1.7626    0.0000 N   0  0  0  0  0  0  0  0  0  0  0  0
   -8.3665   -1.2990    0.0000 C   0  0  0  0  0  0  0  0  0  0  0  0
   -8.3665    0.2010    0.0000 N   0  0  0  0  0  0  0  0  0  0  0  0
   -9.5801    1.0826    0.0000 H   0  0  0  0  0  0  0  0  0  0  0  0
   -6.9399    0.6645    0.0000 N   0  0  0  0  0  0  0  0  0  0  0  0
   -9.5801   -2.1807    0.0000 C   0  0  0  0  0  0  0  0  0  0  0  0
  -10.4188   -3.4243    0.0000 H   0  0  0  0  0  0  0  0  0  0  0  0
   -8.5010   -3.2227    0.0000 H   0  0  0  0  0  0  0  0  0  0  0  0
  -10.9504   -1.5706    0.0000 C   0  0  0  0  0  0  0  0  0  0  0  0
  -10.1116   -0.3271    0.0000 H   0  0  0  0  0  0  0  0  0  0  0  0
  -12.0294   -0.5286    0.0000 H   0  0  0  0  0  0  0  0  0  0  0  0
  -12.1639   -2.4523    0.0000 C   0  0  0  0  0  0  0  0  0  0  0  0
  -13.5342   -1.8422    0.0000 H   0  0  0  0  0  0  0  0  0  0  0  0
  -13.0027   -3.6958    0.0000 H   0  0  0  0  0  0  0  0  0  0  0  0
  -11.0849   -3.4943    0.0000 H   0  0  0  0  0  0  0  0  0  0  0  0
   -1.4266    1.9635    0.0000 S   0  0  0  0  0  0  0  0  0  0  0  0
    1.2990   -0.7500    0.0000 C   0  0  0  0  0  0  0  0  0  0  0  0
    1.2990   -2.2500    0.0000 H   0  0  0  0  0  0  0  0  0  0  0  0
  2  1  1  0  0  0  0 
  3  2  2  0  0  0  0 
  4  3  1  0  0  0  0 
  5  3  1  0  0  0  0 
  6  5  1  0  0  0  0 
  7  5  2  0  0  0  0 
  8  7  1  0  0  0  0 
  9  8  1  0  0  0  0 
 10  9  2  0  0  0  0 
 11 10  1  0  0  0  0 
 12 11  1  0  0  0  0 
 13 11  1  0  0  0  0 
 14 11  1  0  0  0  0 
 15 14  1  0  0  0  0 
 16 15  1  0  0  0  0 
 17 16  2  0  0  0  0 
 18 17  1  0  0  0  0 
 19 18  1  0  0  0  0 
 20 18  1  0  0  0  0 
 20 15  2  0  0  0  0 
 21 17  1  0  0  0  0 
 22 21  1  0  0  0  0 
 23 21  1  0  0  0  0 
 24 21  1  0  0  0  0 
 25 24  1  0  0  0  0 
 26 24  1  0  0  0  0 
 27 24  1  0  0  0  0 
 28 27  1  0  0  0  0 
 29 27  1  0  0  0  0 
 30 27  1  0  0  0  0 
 31 10  1  0  0  0  0 
 31  7  1  0  0  0  0 
 32  8  2  0  0  0  0 
 32  2  1  0  0  0  0 
 33 32  1  0  0  0  0 
M  END
> <id>
17445074

> <origin>
MetFrag

> <smiles>
[H]c3c2nc(C([H])([H])Sc1nc(n([H])n1)C([H])([H])C([H])([H])C([H])([H])[H])sc2c([H])c([H])c3([H])

> <name>
2-[(5-propyl-1H-1,2,4-triazol-3-yl)sulfanylmethyl]-1,3-benzothiazole

> <peaksExplained>
1

> <tiedRank>
43

> <URL>
http://pubchem.ncbi.nlm.nih.gov/summary/summary.cgi?cid=17445074

> <newscore>
0.49785966776365725

> <clusterRank>
43

> <origscore>
0.12175

$$$$

  CDK     1213131428

 33 35  0  0  0  0  0  0  0  0999 V2000
    8.1345   -3.5427    0.0000 H   0  0  0  0  0  0  0  0  0  0  0  0
    6.7863   -2.8851    0.0000 C   0  0  0  0  0  0  0  0  0  0  0  0
    5.5427   -3.7239    0.0000 C   0  0  0  0  0  0  0  0  0  0  0  0
    5.6474   -5.2202    0.0000 H   0  0  0  0  0  0  0  0  0  0  0  0
    4.1945   -3.0663    0.0000 C   0  0  0  0  0  0  0  0  0  0  0  0
    4.0899   -1.5700    0.0000 C   0  0  0  0  0  0  0  0  0  0  0  0
    2.7417   -0.9124    0.0000 H   0  0  0  0  0  0  0  0  0  0  0  0
    5.3335   -0.7312    0.0000 C   0  0  0  0  0  0  0  0  0  0  0  0
    6.6817   -1.3888    0.0000 C   0  0  0  0  0  0  0  0  0  0  0  0
    7.9252   -0.5500    0.0000 H   0  0  0  0  0  0  0  0  0  0  0  0
    5.2288    0.7651    0.0000 N   0  0  0  0  0  0  0  0  0  0  0  0
    3.8806    1.4227    0.0000 C   0  0  0  0  0  0  0  0  0  0  0  0
    2.5562    0.7185    0.0000 N   0  0  0  0  0  0  0  0  0  0  0  0
    1.4772    1.7605    0.0000 C   0  0  0  0  0  0  0  0  0  0  0  0
    2.1348    3.1087    0.0000 N   0  0  0  0  0  0  0  0  0  0  0  0
    3.6202    2.8999    0.0000 S   0  0  0  0  0  0  0  0  0  0  0  0
    0.0000    1.5000    0.0000 C   0  0  0  0  0  0  0  0  0  0  0  0
   -0.5130    2.9095    0.0000 H   0  0  0  0  0  0  0  0  0  0  0  0
    0.0000    0.0000    0.0000 C   0  0  0  0  0  0  0  0  0  0  0  0
   -0.5130   -1.4095    0.0000 H   0  0  0  0  0  0  0  0  0  0  0  0
    1.4772   -0.2605    0.0000 H   0  0  0  0  0  0  0  0  0  0  0  0
   -1.2990    0.7500    0.0000 C   0  0  0  0  0  0  0  0  0  0  0  0
   -2.2632    1.8991    0.0000 H   0  0  0  0  0  0  0  0  0  0  0  0
   -2.2632   -0.3991    0.0000 H   0  0  0  0  0  0  0  0  0  0  0  0
    6.4724    1.6039    0.0000 C   0  0  0  0  0  0  0  0  0  0  0  0
    7.8206    0.9464    0.0000 H   0  0  0  0  0  0  0  0  0  0  0  0
    7.3541    2.8175    0.0000 H   0  0  0  0  0  0  0  0  0  0  0  0
    5.4304    2.6829    0.0000 H   0  0  0  0  0  0  0  0  0  0  0  0
    2.9510   -3.9051    0.0000 C   0  0  0  0  0  0  0  0  0  0  0  0
    3.0556   -5.4015    0.0000 N   0  0  0  0  0  0  0  0  0  0  0  0
    1.8121   -6.2403    0.0000 H   0  0  0  0  0  0  0  0  0  0  0  0
    4.4038   -6.0590    0.0000 H   0  0  0  0  0  0  0  0  0  0  0  0
    1.6028   -3.2476    0.0000 S   0  0  0  0  0  0  0  0  0  0  0  0
  2  1  1  0  0  0  0 
  3  2  2  0  0  0  0 
  4  3  1  0  0  0  0 
  5  3  1  0  0  0  0 
  6  5  2  0  0  0  0 
  7  6  1  0  0  0  0 
  8  6  1  0  0  0  0 
  9  8  2  0  0  0  0 
  9  2  1  0  0  0  0 
 10  9  1  0  0  0  0 
 11  8  1  0  0  0  0 
 12 11  1  0  0  0  0 
 13 12  2  0  0  0  0 
 14 13  1  0  0  0  0 
 15 14  2  0  0  0  0 
 16 15  1  0  0  0  0 
 16 12  1  0  0  0  0 
 17 14  1  0  0  0  0 
 18 17  1  0  0  0  0 
 19 17  1  0  0  0  0 
 20 19  1  0  0  0  0 
 21 19  1  0  0  0  0 
 22 19  1  0  0  0  0 
 22 17  1  0  0  0  0 
 23 22  1  0  0  0  0 
 24 22  1  0  0  0  0 
 25 11  1  0  0  0  0 
 26 25  1  0  0  0  0 
 27 25  1  0  0  0  0 
 28 25  1  0  0  0  0 
 29  5  1  0  0  0  0 
 30 29  1  0  0  0  0 
 31 30  1  0  0  0  0 
 32 30  1  0  0  0  0 
 33 29  2  0  0  0  0 
M  END
> <id>
65272217

> <origin>
MetFrag

> <smiles>
[H]c1c(C(N([H])[H])=S)c([H])c([H])c([H])c1N(c2nc(ns2)C3([H])(C([H])([H])C3([H])([H])))C([H])([H])[H]

> <name>
65272217

> <peaksExplained>
1

> <tiedRank>
44

> <URL>
http://pubchem.ncbi.nlm.nih.gov/summary/summary.cgi?cid=65272217

> <newscore>
0.49764100331402644

> <clusterRank>
44

> <origscore>
0.10525

$$$$

  CDK     1213131428

 33 35  0  0  0  0  0  0  0  0999 V2000
    5.4754    7.8271    0.0000 H   0  0  0  0  0  0  0  0  0  0  0  0
    4.0847    7.2652    0.0000 C   0  0  0  0  0  0  0  0  0  0  0  0
    3.7218    5.8098    0.0000 C   0  0  0  0  0  0  0  0  0  0  0  0
    4.6860    4.6607    0.0000 H   0  0  0  0  0  0  0  0  0  0  0  0
    2.2254    5.7052    0.0000 C   0  0  0  0  0  0  0  0  0  0  0  0
    1.4306    4.4331    0.0000 C   0  0  0  0  0  0  0  0  0  0  0  0
    0.3158    5.4368    0.0000 H   0  0  0  0  0  0  0  0  0  0  0  0
    0.2485    3.5096    0.0000 H   0  0  0  0  0  0  0  0  0  0  0  0
    2.1348    3.1087    0.0000 C   0  0  0  0  0  0  0  0  0  0  0  0
    3.6202    2.8999    0.0000 N   0  0  0  0  0  0  0  0  0  0  0  0
    3.8806    1.4227    0.0000 N   0  0  0  0  0  0  0  0  0  0  0  0
    2.5562    0.7185    0.0000 C   0  0  0  0  0  0  0  0  0  0  0  0
    1.4772    1.7605    0.0000 N   0  0  0  0  0  0  0  0  0  0  0  0
    0.0000    1.5000    0.0000 C   0  0  0  0  0  0  0  0  0  0  0  0
   -0.5130    2.9095    0.0000 H   0  0  0  0  0  0  0  0  0  0  0  0
    0.0000    0.0000    0.0000 C   0  0  0  0  0  0  0  0  0  0  0  0
   -0.5130   -1.4095    0.0000 H   0  0  0  0  0  0  0  0  0  0  0  0
    1.4772   -0.2605    0.0000 H   0  0  0  0  0  0  0  0  0  0  0  0
   -1.2990    0.7500    0.0000 C   0  0  0  0  0  0  0  0  0  0  0  0
   -2.2632    1.8991    0.0000 H   0  0  0  0  0  0  0  0  0  0  0  0
   -2.2632   -0.3991    0.0000 H   0  0  0  0  0  0  0  0  0  0  0  0
    2.3475   -0.7669    0.0000 S   0  0  0  0  0  0  0  0  0  0  0  0
    3.5966   -1.7240    0.0000 C   0  0  0  0  0  0  0  0  0  0  0  0
    4.9561   -2.1539    0.0000 H   0  0  0  0  0  0  0  0  0  0  0  0
    4.2337   -0.3660    0.0000 C   0  0  0  0  0  0  0  0  0  0  0  0
    3.4624   -1.6569    0.0000 N   0  0  0  0  0  0  0  0  0  0  0  0
    3.3207   -3.1758    0.0000 C   0  0  0  0  0  0  0  0  0  0  0  0
    4.5027   -4.0993    0.0000 H   0  0  0  0  0  0  0  0  0  0  0  0
    1.8941   -2.7123    0.0000 H   0  0  0  0  0  0  0  0  0  0  0  0
    2.6165   -4.5002    0.0000 H   0  0  0  0  0  0  0  0  0  0  0  0
    1.6635    7.0959    0.0000 S   0  0  0  0  0  0  0  0  0  0  0  0
    2.8126    8.0601    0.0000 C   0  0  0  0  0  0  0  0  0  0  0  0
    2.7080    9.5565    0.0000 H   0  0  0  0  0  0  0  0  0  0  0  0
  2  1  1  0  0  0  0 
  3  2  1  0  0  0  0 
  4  3  1  0  0  0  0 
  5  3  2  0  0  0  0 
  6  5  1  0  0  0  0 
  7  6  1  0  0  0  0 
  8  6  1  0  0  0  0 
  9  6  1  0  0  0  0 
 10  9  2  0  0  0  0 
 11 10  1  0  0  0  0 
 12 11  2  0  0  0  0 
 13 12  1  0  0  0  0 
 13  9  1  0  0  0  0 
 14 13  1  0  0  0  0 
 15 14  1  0  0  0  0 
 16 14  1  0  0  0  0 
 17 16  1  0  0  0  0 
 18 16  1  0  0  0  0 
 19 16  1  0  0  0  0 
 19 14  1  0  0  0  0 
 20 19  1  0  0  0  0 
 21 19  1  0  0  0  0 
 22 12  1  0  0  0  0 
 23 22  1  0  0  0  0 
 24 23  1  0  0  0  0 
 25 23  1  0  0  0  0 
 26 25  3  0  0  0  0 
 27 23  1  0  0  0  0 
 28 27  1  0  0  0  0 
 29 27  1  0  0  0  0 
 30 27  1  0  0  0  0 
 31  5  1  0  0  0  0 
 32 31  1  0  0  0  0 
 32  2  2  0  0  0  0 
 33 32  1  0  0  0  0 
M  END
> <id>
8300134

> <origin>
MetFrag

> <smiles>
[H]c3c([H])c(C([H])([H])c1nnc(n1C2([H])(C([H])([H])C2([H])([H])))SC([H])(C#N)C([H])([H])[H])sc3([H])

> <name>
(2S)-2-[[4-cyclopropyl-5-(thiophen-2-ylmethyl)-1,2,4-triazol-3-yl]sulfanyl]propanenitrile

> <peaksExplained>
1

> <tiedRank>
45

> <URL>
http://pubchem.ncbi.nlm.nih.gov/summary/summary.cgi?cid=8300134

> <newscore>
0.4975144744848014

> <clusterRank>
45

> <origscore>
0.11624999999999999

$$$$

  CDK     1213131428

 36 36  0  0  0  0  0  0  0  0999 V2000
    1.2990    2.2500    0.0000 H   0  0  0  0  0  0  0  0  0  0  0  0
    0.0000    1.5000    0.0000 C   0  0  0  0  0  0  0  0  0  0  0  0
    0.0000    0.0000    0.0000 C   0  0  0  0  0  0  0  0  0  0  0  0
    1.2990   -0.7500    0.0000 H   0  0  0  0  0  0  0  0  0  0  0  0
   -1.2990   -0.7500    0.0000 C   0  0  0  0  0  0  0  0  0  0  0  0
   -2.5981   -0.0000    0.0000 C   0  0  0  0  0  0  0  0  0  0  0  0
   -2.5981    1.5000    0.0000 C   0  0  0  0  0  0  0  0  0  0  0  0
   -1.2990    2.2500    0.0000 C   0  0  0  0  0  0  0  0  0  0  0  0
   -1.2990    3.7500    0.0000 H   0  0  0  0  0  0  0  0  0  0  0  0
   -3.8971    2.2500    0.0000 S   0  0  0  0  0  0  0  0  0  0  0  0
   -2.9329    3.3991    0.0000 O   0  0  0  0  0  0  0  0  0  0  0  0
   -4.8613    3.3991    0.0000 O   0  0  0  0  0  0  0  0  0  0  0  0
   -5.1962    1.5000    0.0000 C   0  0  0  0  0  0  0  0  0  0  0  0
   -6.4952    2.2500    0.0000 H   0  0  0  0  0  0  0  0  0  0  0  0
   -6.1603    0.3509    0.0000 H   0  0  0  0  0  0  0  0  0  0  0  0
   -4.2320    0.3509    0.0000 H   0  0  0  0  0  0  0  0  0  0  0  0
   -3.8971   -0.7500    0.0000 C   0  0  0  0  0  0  0  0  0  0  0  0
   -4.4101    0.6595    0.0000 H   0  0  0  0  0  0  0  0  0  0  0  0
   -5.3743   -1.0105    0.0000 H   0  0  0  0  0  0  0  0  0  0  0  0
   -3.8971   -2.2500    0.0000 C   0  0  0  0  0  0  0  0  0  0  0  0
   -3.3841   -3.6595    0.0000 H   0  0  0  0  0  0  0  0  0  0  0  0
   -2.4199   -1.9895    0.0000 H   0  0  0  0  0  0  0  0  0  0  0  0
   -5.1962   -3.0000    0.0000 C   0  0  0  0  0  0  0  0  0  0  0  0
   -5.7092   -1.5905    0.0000 H   0  0  0  0  0  0  0  0  0  0  0  0
   -6.6734   -3.2605    0.0000 H   0  0  0  0  0  0  0  0  0  0  0  0
   -5.1962   -4.5000    0.0000 C   0  0  0  0  0  0  0  0  0  0  0  0
   -6.4952   -5.2500    0.0000 H   0  0  0  0  0  0  0  0  0  0  0  0
   -4.6831   -5.9095    0.0000 H   0  0  0  0  0  0  0  0  0  0  0  0
   -3.7189   -4.2395    0.0000 H   0  0  0  0  0  0  0  0  0  0  0  0
   -1.2990   -2.2500    0.0000 S   0  0  0  0  0  0  0  0  0  0  0  0
   -2.7762   -1.9895    0.0000 O   0  0  0  0  0  0  0  0  0  0  0  0
   -1.8121   -3.6595    0.0000 O   0  0  0  0  0  0  0  0  0  0  0  0
   -0.0000   -3.0000    0.0000 C   0  0  0  0  0  0  0  0  0  0  0  0
   -0.0000   -4.5000    0.0000 H   0  0  0  0  0  0  0  0  0  0  0  0
    1.4772   -3.2605    0.0000 H   0  0  0  0  0  0  0  0  0  0  0  0
    0.5130   -1.5905    0.0000 H   0  0  0  0  0  0  0  0  0  0  0  0
  2  1  1  0  0  0  0 
  3  2  2  0  0  0  0 
  4  3  1  0  0  0  0 
  5  3  1  0  0  0  0 
  6  5  2  0  0  0  0 
  7  6  1  0  0  0  0 
  8  7  2  0  0  0  0 
  8  2  1  0  0  0  0 
  9  8  1  0  0  0  0 
 10  7  1  0  0  0  0 
 11 10  2  0  0  0  0 
 12 10  2  0  0  0  0 
 13 10  1  0  0  0  0 
 14 13  1  0  0  0  0 
 15 13  1  0  0  0  0 
 16 13  1  0  0  0  0 
 17  6  1  0  0  0  0 
 18 17  1  0  0  0  0 
 19 17  1  0  0  0  0 
 20 17  1  0  0  0  0 
 21 20  1  0  0  0  0 
 22 20  1  0  0  0  0 
 23 20  1  0  0  0  0 
 24 23  1  0  0  0  0 
 25 23  1  0  0  0  0 
 26 23  1  0  0  0  0 
 27 26  1  0  0  0  0 
 28 26  1  0  0  0  0 
 29 26  1  0  0  0  0 
 30  5  1  0  0  0  0 
 31 30  2  0  0  0  0 
 32 30  2  0  0  0  0 
 33 30  1  0  0  0  0 
 34 33  1  0  0  0  0 
 35 33  1  0  0  0  0 
 36 33  1  0  0  0  0 
M  END
> <id>
619177

> <origin>
MetFrag

> <smiles>
[H]c1c(c(c(c([H])c1([H]))S(=O)(=O)C([H])([H])[H])C([H])([H])C([H])([H])C([H])([H])C([H])([H])[H])S(=O)(=O)C([H])([H])[H]

> <name>
2-butyl-1,3-bis(methylsulfonyl)benzene

> <peaksExplained>
1

> <tiedRank>
46

> <URL>
http://pubchem.ncbi.nlm.nih.gov/summary/summary.cgi?cid=619177

> <newscore>
0.4973193278926168

> <clusterRank>
46

> <origscore>
0.12175

$$$$

  CDK     1213131428

 33 35  0  0  0  0  0  0  0  0999 V2000
    6.4975   -1.2078    0.0000 H   0  0  0  0  0  0  0  0  0  0  0  0
    5.7026    0.0643    0.0000 C   0  0  0  0  0  0  0  0  0  0  0  0
    4.2036    0.0119    0.0000 N   0  0  0  0  0  0  0  0  0  0  0  0
    3.4087    1.2840    0.0000 C   0  0  0  0  0  0  0  0  0  0  0  0
    4.1129    2.6084    0.0000 C   0  0  0  0  0  0  0  0  0  0  0  0
    3.3180    3.8805    0.0000 H   0  0  0  0  0  0  0  0  0  0  0  0
    5.6120    2.6607    0.0000 N   0  0  0  0  0  0  0  0  0  0  0  0
    6.4069    1.3887    0.0000 C   0  0  0  0  0  0  0  0  0  0  0  0
    7.9059    1.4410    0.0000 C   0  0  0  0  0  0  0  0  0  0  0  0
    8.7008    0.1689    0.0000 N   0  0  0  0  0  0  0  0  0  0  0  0
   10.1999    0.2213    0.0000 H   0  0  0  0  0  0  0  0  0  0  0  0
    7.9966   -1.1555    0.0000 H   0  0  0  0  0  0  0  0  0  0  0  0
    8.6101    2.7654    0.0000 S   0  0  0  0  0  0  0  0  0  0  0  0
    1.9096    1.2316    0.0000 N   0  0  0  0  0  0  0  0  0  0  0  0
    1.2054   -0.0928    0.0000 H   0  0  0  0  0  0  0  0  0  0  0  0
    1.1147    2.5037    0.0000 C   0  0  0  0  0  0  0  0  0  0  0  0
    2.5055    3.0656    0.0000 H   0  0  0  0  0  0  0  0  0  0  0  0
    0.0000    1.5000    0.0000 C   0  0  0  0  0  0  0  0  0  0  0  0
    0.0000    0.0000    0.0000 C   0  0  0  0  0  0  0  0  0  0  0  0
    1.2135   -0.8817    0.0000 H   0  0  0  0  0  0  0  0  0  0  0  0
   -1.4266   -0.4635    0.0000 C   0  0  0  0  0  0  0  0  0  0  0  0
   -1.8901   -1.8901    0.0000 H   0  0  0  0  0  0  0  0  0  0  0  0
   -2.3083    0.7500    0.0000 S   0  0  0  0  0  0  0  0  0  0  0  0
   -1.4266    1.9635    0.0000 C   0  0  0  0  0  0  0  0  0  0  0  0
   -1.7385    3.4307    0.0000 C   0  0  0  0  0  0  0  0  0  0  0  0
   -2.5333    4.7028    0.0000 H   0  0  0  0  0  0  0  0  0  0  0  0
   -3.1292    2.8688    0.0000 H   0  0  0  0  0  0  0  0  0  0  0  0
   -0.6237    4.4344    0.0000 C   0  0  0  0  0  0  0  0  0  0  0  0
    0.0805    5.7589    0.0000 H   0  0  0  0  0  0  0  0  0  0  0  0
   -1.8058    5.3579    0.0000 H   0  0  0  0  0  0  0  0  0  0  0  0
    0.8028    3.9709    0.0000 C   0  0  0  0  0  0  0  0  0  0  0  0
    2.3019    4.0233    0.0000 H   0  0  0  0  0  0  0  0  0  0  0  0
    1.0116    5.4563    0.0000 H   0  0  0  0  0  0  0  0  0  0  0  0
  2  1  1  0  0  0  0 
  3  2  1  0  0  0  0 
  4  3  2  0  0  0  0 
  5  4  1  0  0  0  0 
  6  5  1  0  0  0  0 
  7  5  2  0  0  0  0 
  8  7  1  0  0  0  0 
  8  2  2  0  0  0  0 
  9  8  1  0  0  0  0 
 10  9  1  0  0  0  0 
 11 10  1  0  0  0  0 
 12 10  1  0  0  0  0 
 13  9  2  0  0  0  0 
 14  4  1  0  0  0  0 
 15 14  1  0  0  0  0 
 16 14  1  0  0  0  0 
 17 16  1  0  0  0  0 
 18 16  1  0  0  0  0 
 19 18  1  0  0  0  0 
 20 19  1  0  0  0  0 
 21 19  2  0  0  0  0 
 22 21  1  0  0  0  0 
 23 21  1  0  0  0  0 
 24 23  1  0  0  0  0 
 24 18  2  0  0  0  0 
 25 24  1  0  0  0  0 
 26 25  1  0  0  0  0 
 27 25  1  0  0  0  0 
 28 25  1  0  0  0  0 
 29 28  1  0  0  0  0 
 30 28  1  0  0  0  0 
 31 28  1  0  0  0  0 
 31 16  1  0  0  0  0 
 32 31  1  0  0  0  0 
 33 31  1  0  0  0  0 
M  END
> <id>
64272486

> <origin>
MetFrag

> <smiles>
[H]c1nc(c([H])nc1C(N([H])[H])=S)N([H])C3([H])(c2c([H])c([H])sc2C([H])([H])C([H])([H])C3([H])([H]))

> <name>
64272486

> <peaksExplained>
1

> <tiedRank>
47

> <URL>
http://pubchem.ncbi.nlm.nih.gov/summary/summary.cgi?cid=64272486

> <newscore>
0.49649733317309735

> <clusterRank>
47

> <origscore>
0.026499999999999982

$$$$

  CDK     1213131428

 31 33  0  0  0  0  0  0  0  0999 V2000
    6.8488    2.0864    0.0000 H   0  0  0  0  0  0  0  0  0  0  0  0
    5.9671    0.8728    0.0000 O   0  0  0  0  0  0  0  0  0  0  0  0
    4.4753    1.0296    0.0000 C   0  0  0  0  0  0  0  0  0  0  0  0
    3.5937   -0.1839    0.0000 C   0  0  0  0  0  0  0  0  0  0  0  0
    4.2038   -1.5542    0.0000 H   0  0  0  0  0  0  0  0  0  0  0  0
    2.1019   -0.0271    0.0000 C   0  0  0  0  0  0  0  0  0  0  0  0
    1.2202   -1.2406    0.0000 H   0  0  0  0  0  0  0  0  0  0  0  0
    1.4918    1.3432    0.0000 C   0  0  0  0  0  0  0  0  0  0  0  0
    2.3735    2.5567    0.0000 C   0  0  0  0  0  0  0  0  0  0  0  0
    1.7634    3.9271    0.0000 H   0  0  0  0  0  0  0  0  0  0  0  0
    3.8652    2.3999    0.0000 C   0  0  0  0  0  0  0  0  0  0  0  0
    4.7469    3.6135    0.0000 H   0  0  0  0  0  0  0  0  0  0  0  0
    0.0000    1.5000    0.0000 C   0  0  0  0  0  0  0  0  0  0  0  0
    0.3119    2.9672    0.0000 H   0  0  0  0  0  0  0  0  0  0  0  0
    0.0000    0.0000    0.0000 C   0  0  0  0  0  0  0  0  0  0  0  0
    1.1147   -1.0037    0.0000 C   0  0  0  0  0  0  0  0  0  0  0  0
    2.5413   -0.5402    0.0000 O   0  0  0  0  0  0  0  0  0  0  0  0
    0.8028   -2.4709    0.0000 N   0  0  0  0  0  0  0  0  0  0  0  0
    1.9176   -3.4746    0.0000 H   0  0  0  0  0  0  0  0  0  0  0  0
   -0.6237   -2.9344    0.0000 C   0  0  0  0  0  0  0  0  0  0  0  0
   -1.7385   -1.9307    0.0000 N   0  0  0  0  0  0  0  0  0  0  0  0
   -1.4266   -0.4635    0.0000 C   0  0  0  0  0  0  0  0  0  0  0  0
   -2.3083    0.7500    0.0000 O   0  0  0  0  0  0  0  0  0  0  0  0
   -1.4266    1.9635    0.0000 C   0  0  0  0  0  0  0  0  0  0  0  0
   -0.8165    3.3338    0.0000 H   0  0  0  0  0  0  0  0  0  0  0  0
   -2.7256    2.7135    0.0000 N   0  0  0  0  0  0  0  0  0  0  0  0
   -4.0247    1.9635    0.0000 O   0  0  0  0  0  0  0  0  0  0  0  0
   -2.7256    4.2135    0.0000 O   0  0  0  0  0  0  0  0  0  0  0  0
   -0.9356   -4.4017    0.0000 N   0  0  0  0  0  0  0  0  0  0  0  0
   -2.3622   -4.8652    0.0000 H   0  0  0  0  0  0  0  0  0  0  0  0
    0.1791   -5.4054    0.0000 H   0  0  0  0  0  0  0  0  0  0  0  0
  2  1  1  0  0  0  0 
  3  2  1  0  0  0  0 
  4  3  2  0  0  0  0 
  5  4  1  0  0  0  0 
  6  4  1  0  0  0  0 
  7  6  1  0  0  0  0 
  8  6  2  0  0  0  0 
  9  8  1  0  0  0  0 
 10  9  1  0  0  0  0 
 11  9  2  0  0  0  0 
 11  3  1  0  0  0  0 
 12 11  1  0  0  0  0 
 13  8  1  0  0  0  0 
 14 13  1  0  0  0  0 
 15 13  1  0  0  0  0 
 16 15  1  0  0  0  0 
 17 16  2  0  0  0  0 
 18 16  1  0  0  0  0 
 19 18  1  0  0  0  0 
 20 18  1  0  0  0  0 
 21 20  2  0  0  0  0 
 22 21  1  0  0  0  0 
 22 15  2  0  0  0  0 
 23 22  1  0  0  0  0 
 24 23  1  0  0  0  0 
 24 13  1  0  0  0  0 
 25 24  1  0  0  0  0 
 26 24  1  0  0  0  0 
 27 26  2  0  0  0  0 
 28 26  1  0  0  0  0 
 29 20  1  0  0  0  0 
 30 29  1  0  0  0  0 
 31 29  1  0  0  0  0 
M  CHG  1  26   1
M  CHG  1  28  -1
M  END
> <id>
10565401

> <origin>
MetFrag

> <smiles>
[H]Oc1c([H])c([H])c(c([H])c1([H]))C2([H])(C=3C(=O)N([H])C(=NC=3(OC2([H])([N+](=O)[O-])))N([H])[H])

> <name>
(5R,6R)-2-amino-5-(4-hydroxyphenyl)-6-nitro-5,6-dihydro-3H-furo[2,3-d]pyrimidin-4-one

> <peaksExplained>
0

> <tiedRank>
48

> <URL>
http://pubchem.ncbi.nlm.nih.gov/summary/summary.cgi?cid=10565401

> <newscore>
0.4964478133025936

> <clusterRank>
48

> <origscore>
0.0

$$$$

  CDK     1213131428

 36 36  0  0  0  0  0  0  0  0999 V2000
    7.7753    6.7244    0.0000 H   0  0  0  0  0  0  0  0  0  0  0  0
    6.8111    5.5753    0.0000 C   0  0  0  0  0  0  0  0  0  0  0  0
    5.3339    5.8358    0.0000 H   0  0  0  0  0  0  0  0  0  0  0  0
    7.3242    4.1658    0.0000 C   0  0  0  0  0  0  0  0  0  0  0  0
    6.3600    3.0167    0.0000 C   0  0  0  0  0  0  0  0  0  0  0  0
    6.8730    1.6072    0.0000 O   0  0  0  0  0  0  0  0  0  0  0  0
    4.8828    3.2772    0.0000 O   0  0  0  0  0  0  0  0  0  0  0  0
    3.9186    2.1281    0.0000 C   0  0  0  0  0  0  0  0  0  0  0  0
    3.4056    0.7186    0.0000 H   0  0  0  0  0  0  0  0  0  0  0  0
    5.2176    1.3781    0.0000 H   0  0  0  0  0  0  0  0  0  0  0  0
    2.4414    2.3886    0.0000 C   0  0  0  0  0  0  0  0  0  0  0  0
    1.9284    3.7981    0.0000 O   0  0  0  0  0  0  0  0  0  0  0  0
    1.4772    1.2395    0.0000 O   0  0  0  0  0  0  0  0  0  0  0  0
    0.0000    1.5000    0.0000 C   0  0  0  0  0  0  0  0  0  0  0  0
    0.5130    2.9095    0.0000 H   0  0  0  0  0  0  0  0  0  0  0  0
    0.0000    0.0000    0.0000 C   0  0  0  0  0  0  0  0  0  0  0  0
    0.5130   -1.4095    0.0000 H   0  0  0  0  0  0  0  0  0  0  0  0
    1.4772    0.2605    0.0000 H   0  0  0  0  0  0  0  0  0  0  0  0
   -1.2990   -0.7500    0.0000 S   0  0  0  0  0  0  0  0  0  0  0  0
   -2.5981   -0.0000    0.0000 C   0  0  0  0  0  0  0  0  0  0  0  0
   -4.0753    0.2605    0.0000 H   0  0  0  0  0  0  0  0  0  0  0  0
   -3.1111   -1.4095    0.0000 C   0  0  0  0  0  0  0  0  0  0  0  0
   -4.5883   -1.6700    0.0000 H   0  0  0  0  0  0  0  0  0  0  0  0
   -3.1111   -2.9095    0.0000 H   0  0  0  0  0  0  0  0  0  0  0  0
   -1.6339   -1.6700    0.0000 H   0  0  0  0  0  0  0  0  0  0  0  0
   -2.5981    1.5000    0.0000 C   0  0  0  0  0  0  0  0  0  0  0  0
   -3.1111    2.9095    0.0000 H   0  0  0  0  0  0  0  0  0  0  0  0
   -4.0753    1.2395    0.0000 C   0  0  0  0  0  0  0  0  0  0  0  0
   -5.0395    2.3886    0.0000 H   0  0  0  0  0  0  0  0  0  0  0  0
   -5.3743    0.4895    0.0000 H   0  0  0  0  0  0  0  0  0  0  0  0
   -3.5623   -0.1700    0.0000 H   0  0  0  0  0  0  0  0  0  0  0  0
   -1.2990    2.2500    0.0000 S   0  0  0  0  0  0  0  0  0  0  0  0
    8.8014    3.9053    0.0000 C   0  0  0  0  0  0  0  0  0  0  0  0
    9.7656    5.0544    0.0000 H   0  0  0  0  0  0  0  0  0  0  0  0
    8.2884    2.4958    0.0000 H   0  0  0  0  0  0  0  0  0  0  0  0
   10.1004    3.1553    0.0000 H   0  0  0  0  0  0  0  0  0  0  0  0
  2  1  1  0  0  0  0 
  3  2  1  0  0  0  0 
  4  2  2  0  0  0  0 
  5  4  1  0  0  0  0 
  6  5  2  0  0  0  0 
  7  5  1  0  0  0  0 
  8  7  1  0  0  0  0 
  9  8  1  0  0  0  0 
 10  8  1  0  0  0  0 
 11  8  1  0  0  0  0 
 12 11  2  0  0  0  0 
 13 11  1  0  0  0  0 
 14 13  1  0  0  0  0 
 15 14  1  0  0  0  0 
 16 14  1  0  0  0  0 
 17 16  1  0  0  0  0 
 18 16  1  0  0  0  0 
 19 16  1  0  0  0  0 
 20 19  1  0  0  0  0 
 21 20  1  0  0  0  0 
 22 20  1  0  0  0  0 
 23 22  1  0  0  0  0 
 24 22  1  0  0  0  0 
 25 22  1  0  0  0  0 
 26 20  1  0  0  0  0 
 27 26  1  0  0  0  0 
 28 26  1  0  0  0  0 
 29 28  1  0  0  0  0 
 30 28  1  0  0  0  0 
 31 28  1  0  0  0  0 
 32 26  1  0  0  0  0 
 32 14  1  0  0  0  0 
 33  4  1  0  0  0  0 
 34 33  1  0  0  0  0 
 35 33  1  0  0  0  0 
 36 33  1  0  0  0  0 
M  END
> <id>
59637895

> <origin>
MetFrag

> <smiles>
[H]C([H])=C(C(=O)OC([H])([H])C(=O)OC1([H])(C([H])([H])SC([H])(C([H])(C([H])([H])[H])S1)C([H])([H])[H]))C([H])([H])[H]

> <name>
59637895

> <peaksExplained>
1

> <tiedRank>
49

> <URL>
http://pubchem.ncbi.nlm.nih.gov/summary/summary.cgi?cid=59637895

> <newscore>
0.49583958226910085

> <clusterRank>
49

> <origscore>
0.10525

$$$$

  CDK     1213131428

 33 35  0  0  0  0  0  0  0  0999 V2000
    7.9059    1.4410    0.0000 H   0  0  0  0  0  0  0  0  0  0  0  0
    6.4069    1.3887    0.0000 C   0  0  0  0  0  0  0  0  0  0  0  0
    5.7026    0.0643    0.0000 N   0  0  0  0  0  0  0  0  0  0  0  0
    4.2036    0.0119    0.0000 C   0  0  0  0  0  0  0  0  0  0  0  0
    3.4087    1.2840    0.0000 C   0  0  0  0  0  0  0  0  0  0  0  0
    4.1129    2.6084    0.0000 N   0  0  0  0  0  0  0  0  0  0  0  0
    5.6120    2.6607    0.0000 C   0  0  0  0  0  0  0  0  0  0  0  0
    6.3162    3.9852    0.0000 H   0  0  0  0  0  0  0  0  0  0  0  0
    1.9096    1.2316    0.0000 N   0  0  0  0  0  0  0  0  0  0  0  0
    1.2054   -0.0928    0.0000 H   0  0  0  0  0  0  0  0  0  0  0  0
    1.1147    2.5037    0.0000 C   0  0  0  0  0  0  0  0  0  0  0  0
    2.5055    3.0656    0.0000 H   0  0  0  0  0  0  0  0  0  0  0  0
    0.0000    1.5000    0.0000 C   0  0  0  0  0  0  0  0  0  0  0  0
    0.0000    0.0000    0.0000 C   0  0  0  0  0  0  0  0  0  0  0  0
    1.2135   -0.8817    0.0000 H   0  0  0  0  0  0  0  0  0  0  0  0
   -1.4266   -0.4635    0.0000 C   0  0  0  0  0  0  0  0  0  0  0  0
   -1.8901   -1.8901    0.0000 H   0  0  0  0  0  0  0  0  0  0  0  0
   -2.3083    0.7500    0.0000 S   0  0  0  0  0  0  0  0  0  0  0  0
   -1.4266    1.9635    0.0000 C   0  0  0  0  0  0  0  0  0  0  0  0
   -1.7385    3.4307    0.0000 C   0  0  0  0  0  0  0  0  0  0  0  0
   -2.5333    4.7028    0.0000 H   0  0  0  0  0  0  0  0  0  0  0  0
   -3.1292    2.8688    0.0000 H   0  0  0  0  0  0  0  0  0  0  0  0
   -0.6237    4.4344    0.0000 C   0  0  0  0  0  0  0  0  0  0  0  0
    0.0805    5.7589    0.0000 H   0  0  0  0  0  0  0  0  0  0  0  0
   -1.8058    5.3579    0.0000 H   0  0  0  0  0  0  0  0  0  0  0  0
    0.8028    3.9709    0.0000 C   0  0  0  0  0  0  0  0  0  0  0  0
    2.3019    4.0233    0.0000 H   0  0  0  0  0  0  0  0  0  0  0  0
    1.0116    5.4563    0.0000 H   0  0  0  0  0  0  0  0  0  0  0  0
    3.4994   -1.3125    0.0000 C   0  0  0  0  0  0  0  0  0  0  0  0
    4.2942   -2.5846    0.0000 N   0  0  0  0  0  0  0  0  0  0  0  0
    3.5900   -3.9090    0.0000 H   0  0  0  0  0  0  0  0  0  0  0  0
    5.7933   -2.5322    0.0000 H   0  0  0  0  0  0  0  0  0  0  0  0
    2.0003   -1.3649    0.0000 S   0  0  0  0  0  0  0  0  0  0  0  0
  2  1  1  0  0  0  0 
  3  2  1  0  0  0  0 
  4  3  2  0  0  0  0 
  5  4  1  0  0  0  0 
  6  5  2  0  0  0  0 
  7  6  1  0  0  0  0 
  7  2  2  0  0  0  0 
  8  7  1  0  0  0  0 
  9  5  1  0  0  0  0 
 10  9  1  0  0  0  0 
 11  9  1  0  0  0  0 
 12 11  1  0  0  0  0 
 13 11  1  0  0  0  0 
 14 13  1  0  0  0  0 
 15 14  1  0  0  0  0 
 16 14  2  0  0  0  0 
 17 16  1  0  0  0  0 
 18 16  1  0  0  0  0 
 19 18  1  0  0  0  0 
 19 13  2  0  0  0  0 
 20 19  1  0  0  0  0 
 21 20  1  0  0  0  0 
 22 20  1  0  0  0  0 
 23 20  1  0  0  0  0 
 24 23  1  0  0  0  0 
 25 23  1  0  0  0  0 
 26 23  1  0  0  0  0 
 26 11  1  0  0  0  0 
 27 26  1  0  0  0  0 
 28 26  1  0  0  0  0 
 29  4  1  0  0  0  0 
 30 29  1  0  0  0  0 
 31 30  1  0  0  0  0 
 32 30  1  0  0  0  0 
 33 29  2  0  0  0  0 
M  END
> <id>
55126518

> <origin>
MetFrag

> <smiles>
[H]c1nc(c(nc1([H]))N([H])C3([H])(c2c([H])c([H])sc2C([H])([H])C([H])([H])C3([H])([H])))C(N([H])[H])=S

> <name>
55126518

> <peaksExplained>
1

> <tiedRank>
50

> <URL>
http://pubchem.ncbi.nlm.nih.gov/summary/summary.cgi?cid=55126518

> <newscore>
0.4956293060239273

> <clusterRank>
50

> <origscore>
0.026499999999999982

$$$$

  CDK     1213131428

 33 35  0  0  0  0  0  0  0  0999 V2000
    7.4303   -1.6740    0.0000 H   0  0  0  0  0  0  0  0  0  0  0  0
    6.8202   -0.3037    0.0000 C   0  0  0  0  0  0  0  0  0  0  0  0
    5.3529    0.0082    0.0000 N   0  0  0  0  0  0  0  0  0  0  0  0
    5.1962    1.5000    0.0000 C   0  0  0  0  0  0  0  0  0  0  0  0
    6.5665    2.1101    0.0000 N   0  0  0  0  0  0  0  0  0  0  0  0
    7.5702    0.9954    0.0000 C   0  0  0  0  0  0  0  0  0  0  0  0
    9.0619    1.1522    0.0000 H   0  0  0  0  0  0  0  0  0  0  0  0
    6.8783    3.5773    0.0000 C   0  0  0  0  0  0  0  0  0  0  0  0
    8.3049    4.0409    0.0000 H   0  0  0  0  0  0  0  0  0  0  0  0
    6.6696    5.0627    0.0000 H   0  0  0  0  0  0  0  0  0  0  0  0
    5.3793    3.6297    0.0000 H   0  0  0  0  0  0  0  0  0  0  0  0
    3.8971    2.2500    0.0000 S   0  0  0  0  0  0  0  0  0  0  0  0
    2.5981    1.5000    0.0000 C   0  0  0  0  0  0  0  0  0  0  0  0
    1.2990    2.2500    0.0000 N   0  0  0  0  0  0  0  0  0  0  0  0
    0.0000    1.5000    0.0000 C   0  0  0  0  0  0  0  0  0  0  0  0
    0.0000    0.0000    0.0000 C   0  0  0  0  0  0  0  0  0  0  0  0
    1.2990   -0.7500    0.0000 N   0  0  0  0  0  0  0  0  0  0  0  0
    2.5981   -0.0000    0.0000 C   0  0  0  0  0  0  0  0  0  0  0  0
    3.8971   -0.7500    0.0000 C   0  0  0  0  0  0  0  0  0  0  0  0
    5.3743   -1.0105    0.0000 H   0  0  0  0  0  0  0  0  0  0  0  0
    3.8971   -2.2500    0.0000 C   0  0  0  0  0  0  0  0  0  0  0  0
    5.1962   -3.0000    0.0000 H   0  0  0  0  0  0  0  0  0  0  0  0
    2.4199   -1.9895    0.0000 H   0  0  0  0  0  0  0  0  0  0  0  0
    3.3841   -3.6595    0.0000 H   0  0  0  0  0  0  0  0  0  0  0  0
    4.4101    0.6595    0.0000 C   0  0  0  0  0  0  0  0  0  0  0  0
    5.8874    0.9200    0.0000 H   0  0  0  0  0  0  0  0  0  0  0  0
    4.4101    2.1595    0.0000 H   0  0  0  0  0  0  0  0  0  0  0  0
    2.9329    0.9200    0.0000 H   0  0  0  0  0  0  0  0  0  0  0  0
   -1.4266   -0.4635    0.0000 C   0  0  0  0  0  0  0  0  0  0  0  0
   -1.8901   -1.8901    0.0000 H   0  0  0  0  0  0  0  0  0  0  0  0
   -2.3083    0.7500    0.0000 S   0  0  0  0  0  0  0  0  0  0  0  0
   -1.4266    1.9635    0.0000 C   0  0  0  0  0  0  0  0  0  0  0  0
   -1.8901    3.3901    0.0000 H   0  0  0  0  0  0  0  0  0  0  0  0
  2  1  1  0  0  0  0 
  3  2  1  0  0  0  0 
  4  3  2  0  0  0  0 
  5  4  1  0  0  0  0 
  6  5  1  0  0  0  0 
  6  2  2  0  0  0  0 
  7  6  1  0  0  0  0 
  8  5  1  0  0  0  0 
  9  8  1  0  0  0  0 
 10  8  1  0  0  0  0 
 11  8  1  0  0  0  0 
 12  4  1  0  0  0  0 
 13 12  1  0  0  0  0 
 14 13  2  0  0  0  0 
 15 14  1  0  0  0  0 
 16 15  1  0  0  0  0 
 17 16  1  0  0  0  0 
 18 17  2  0  0  0  0 
 18 13  1  0  0  0  0 
 19 18  1  0  0  0  0 
 20 19  1  0  0  0  0 
 21 19  1  0  0  0  0 
 22 21  1  0  0  0  0 
 23 21  1  0  0  0  0 
 24 21  1  0  0  0  0 
 25 19  1  0  0  0  0 
 26 25  1  0  0  0  0 
 27 25  1  0  0  0  0 
 28 25  1  0  0  0  0 
 29 16  2  0  0  0  0 
 30 29  1  0  0  0  0 
 31 29  1  0  0  0  0 
 32 31  1  0  0  0  0 
 32 15  2  0  0  0  0 
 33 32  1  0  0  0  0 
M  END
> <id>
57344799

> <origin>
MetFrag

> <smiles>
[H]c1nc(n(c1([H]))C([H])([H])[H])Sc2nc3c(nc2C([H])(C([H])([H])[H])C([H])([H])[H])c([H])sc3([H])

> <name>
57344799

> <peaksExplained>
1

> <tiedRank>
51

> <URL>
http://pubchem.ncbi.nlm.nih.gov/summary/summary.cgi?cid=57344799

> <newscore>
0.4953884091910011

> <clusterRank>
51

> <origscore>
0.12175

$$$$

  CDK     1213131428

 36 36  0  0  0  0  0  0  0  0999 V2000
    4.2424    4.3615    0.0000 H   0  0  0  0  0  0  0  0  0  0  0  0
    2.7869    3.9986    0.0000 C   0  0  0  0  0  0  0  0  0  0  0  0
    2.6823    5.4950    0.0000 H   0  0  0  0  0  0  0  0  0  0  0  0
    1.2951    4.1554    0.0000 H   0  0  0  0  0  0  0  0  0  0  0  0
    2.3735    2.5567    0.0000 C   0  0  0  0  0  0  0  0  0  0  0  0
    1.0253    3.2143    0.0000 H   0  0  0  0  0  0  0  0  0  0  0  0
    1.4918    1.3432    0.0000 C   0  0  0  0  0  0  0  0  0  0  0  0
    1.0783   -0.0987    0.0000 H   0  0  0  0  0  0  0  0  0  0  0  0
    2.8400    0.6857    0.0000 H   0  0  0  0  0  0  0  0  0  0  0  0
    0.0000    1.5000    0.0000 C   0  0  0  0  0  0  0  0  0  0  0  0
    0.3119    2.9672    0.0000 H   0  0  0  0  0  0  0  0  0  0  0  0
    0.0000    0.0000    0.0000 O   0  0  0  0  0  0  0  0  0  0  0  0
   -1.4266   -0.4635    0.0000 C   0  0  0  0  0  0  0  0  0  0  0  0
   -1.8901   -1.8901    0.0000 O   0  0  0  0  0  0  0  0  0  0  0  0
   -2.3083    0.7500    0.0000 C   0  0  0  0  0  0  0  0  0  0  0  0
   -3.4230    1.7537    0.0000 H   0  0  0  0  0  0  0  0  0  0  0  0
   -3.4230   -0.2537    0.0000 C   0  0  0  0  0  0  0  0  0  0  0  0
   -3.1111   -1.7209    0.0000 O   0  0  0  0  0  0  0  0  0  0  0  0
   -4.8496    0.2098    0.0000 C   0  0  0  0  0  0  0  0  0  0  0  0
   -4.1454    1.5343    0.0000 H   0  0  0  0  0  0  0  0  0  0  0  0
   -6.0316    1.1333    0.0000 H   0  0  0  0  0  0  0  0  0  0  0  0
   -5.9643   -0.7939    0.0000 C   0  0  0  0  0  0  0  0  0  0  0  0
   -6.6685   -2.1183    0.0000 H   0  0  0  0  0  0  0  0  0  0  0  0
   -4.7823   -1.7174    0.0000 H   0  0  0  0  0  0  0  0  0  0  0  0
   -7.3909   -0.3303    0.0000 S   0  0  0  0  0  0  0  0  0  0  0  0
   -8.5056   -1.3340    0.0000 C   0  0  0  0  0  0  0  0  0  0  0  0
   -9.9322   -0.8705    0.0000 H   0  0  0  0  0  0  0  0  0  0  0  0
   -9.2098   -2.6585    0.0000 H   0  0  0  0  0  0  0  0  0  0  0  0
   -7.3236   -2.2575    0.0000 H   0  0  0  0  0  0  0  0  0  0  0  0
   -1.4266    1.9635    0.0000 C   0  0  0  0  0  0  0  0  0  0  0  0
   -1.8901    3.3901    0.0000 O   0  0  0  0  0  0  0  0  0  0  0  0
    3.8652    2.3999    0.0000 S   0  0  0  0  0  0  0  0  0  0  0  0
    4.7469    3.6135    0.0000 C   0  0  0  0  0  0  0  0  0  0  0  0
    6.2387    3.4567    0.0000 H   0  0  0  0  0  0  0  0  0  0  0  0
    5.1604    5.0554    0.0000 H   0  0  0  0  0  0  0  0  0  0  0  0
    3.3987    4.2710    0.0000 H   0  0  0  0  0  0  0  0  0  0  0  0
  2  1  1  0  0  0  0 
  3  2  1  0  0  0  0 
  4  2  1  0  0  0  0 
  5  2  1  0  0  0  0 
  6  5  1  0  0  0  0 
  7  5  1  0  0  0  0 
  8  7  1  0  0  0  0 
  9  7  1  0  0  0  0 
 10  7  1  0  0  0  0 
 11 10  1  0  0  0  0 
 12 10  1  0  0  0  0 
 13 12  1  0  0  0  0 
 14 13  2  0  0  0  0 
 15 13  1  0  0  0  0 
 16 15  1  0  0  0  0 
 17 15  1  0  0  0  0 
 18 17  2  0  0  0  0 
 19 17  1  0  0  0  0 
 20 19  1  0  0  0  0 
 21 19  1  0  0  0  0 
 22 19  1  0  0  0  0 
 23 22  1  0  0  0  0 
 24 22  1  0  0  0  0 
 25 22  1  0  0  0  0 
 26 25  1  0  0  0  0 
 27 26  1  0  0  0  0 
 28 26  1  0  0  0  0 
 29 26  1  0  0  0  0 
 30 15  1  0  0  0  0 
 30 10  1  0  0  0  0 
 31 30  2  0  0  0  0 
 32  5  1  0  0  0  0 
 33 32  1  0  0  0  0 
 34 33  1  0  0  0  0 
 35 33  1  0  0  0  0 
 36 33  1  0  0  0  0 
M  END
> <id>
11335267

> <origin>
MetFrag

> <smiles>
[H]C([H])(C(=O)C1([H])(C(=O)OC([H])(C1(=O))C([H])([H])C([H])(C([H])([H])[H])SC([H])([H])[H]))C([H])([H])SC([H])([H])[H]

> <name>
3-(3-methylsulfanylpropanoyl)-5-(2-methylsulfanylpropyl)oxolane-2,4-dione

> <peaksExplained>
0

> <tiedRank>
52

> <URL>
http://pubchem.ncbi.nlm.nih.gov/summary/summary.cgi?cid=11335267

> <newscore>
0.494114097578894

> <clusterRank>
52

> <origscore>
0.0

$$$$

  CDK     1213131428

 34 35  0  0  0  0  0  0  0  0999 V2000
    2.3735    2.5567    0.0000 H   0  0  0  0  0  0  0  0  0  0  0  0
    1.4918    1.3432    0.0000 O   0  0  0  0  0  0  0  0  0  0  0  0
    0.0000    1.5000    0.0000 C   0  0  0  0  0  0  0  0  0  0  0  0
    0.3119    2.9672    0.0000 C   0  0  0  0  0  0  0  0  0  0  0  0
   -0.8028    3.9709    0.0000 O   0  0  0  0  0  0  0  0  0  0  0  0
    1.7385    3.4307    0.0000 O   0  0  0  0  0  0  0  0  0  0  0  0
    2.0503    4.8980    0.0000 C   0  0  0  0  0  0  0  0  0  0  0  0
    3.4769    5.3615    0.0000 H   0  0  0  0  0  0  0  0  0  0  0  0
    1.8416    6.3834    0.0000 H   0  0  0  0  0  0  0  0  0  0  0  0
    0.5512    4.9503    0.0000 H   0  0  0  0  0  0  0  0  0  0  0  0
    0.0000    0.0000    0.0000 C   0  0  0  0  0  0  0  0  0  0  0  0
    0.3119   -1.4672    0.0000 H   0  0  0  0  0  0  0  0  0  0  0  0
    1.4918    0.1568    0.0000 H   0  0  0  0  0  0  0  0  0  0  0  0
   -1.4266   -0.4635    0.0000 O   0  0  0  0  0  0  0  0  0  0  0  0
   -2.3083    0.7500    0.0000 C   0  0  0  0  0  0  0  0  0  0  0  0
   -3.1899   -0.4635    0.0000 O   0  0  0  0  0  0  0  0  0  0  0  0
   -4.6817   -0.3067    0.0000 C   0  0  0  0  0  0  0  0  0  0  0  0
   -5.5634   -1.5203    0.0000 H   0  0  0  0  0  0  0  0  0  0  0  0
   -4.2683    1.1352    0.0000 H   0  0  0  0  0  0  0  0  0  0  0  0
   -6.0299    0.3508    0.0000 H   0  0  0  0  0  0  0  0  0  0  0  0
   -3.7348    1.2135    0.0000 C   0  0  0  0  0  0  0  0  0  0  0  0
   -5.2266    1.3703    0.0000 H   0  0  0  0  0  0  0  0  0  0  0  0
   -4.0467   -0.2537    0.0000 H   0  0  0  0  0  0  0  0  0  0  0  0
   -3.7348    2.7135    0.0000 C   0  0  0  0  0  0  0  0  0  0  0  0
   -4.9484    3.5952    0.0000 O   0  0  0  0  0  0  0  0  0  0  0  0
   -2.3083    3.1771    0.0000 O   0  0  0  0  0  0  0  0  0  0  0  0
   -1.4266    1.9635    0.0000 C   0  0  0  0  0  0  0  0  0  0  0  0
   -0.5449    3.1771    0.0000 C   0  0  0  0  0  0  0  0  0  0  0  0
    0.9469    3.0203    0.0000 O   0  0  0  0  0  0  0  0  0  0  0  0
   -1.1550    4.5474    0.0000 O   0  0  0  0  0  0  0  0  0  0  0  0
   -0.2733    5.7609    0.0000 C   0  0  0  0  0  0  0  0  0  0  0  0
   -0.8834    7.1312    0.0000 H   0  0  0  0  0  0  0  0  0  0  0  0
    0.7687    4.6819    0.0000 H   0  0  0  0  0  0  0  0  0  0  0  0
    0.9702    6.5997    0.0000 H   0  0  0  0  0  0  0  0  0  0  0  0
  2  1  1  0  0  0  0 
  3  2  1  0  0  0  0 
  4  3  1  0  0  0  0 
  5  4  2  0  0  0  0 
  6  4  1  0  0  0  0 
  7  6  1  0  0  0  0 
  8  7  1  0  0  0  0 
  9  7  1  0  0  0  0 
 10  7  1  0  0  0  0 
 11  3  1  0  0  0  0 
 12 11  1  0  0  0  0 
 13 11  1  0  0  0  0 
 14 11  1  0  0  0  0 
 15 14  1  0  0  0  0 
 16 15  1  0  0  0  0 
 17 16  1  0  0  0  0 
 18 17  1  0  0  0  0 
 19 17  1  0  0  0  0 
 20 17  1  0  0  0  0 
 21 15  1  0  0  0  0 
 22 21  1  0  0  0  0 
 23 21  1  0  0  0  0 
 24 21  1  0  0  0  0 
 25 24  2  0  0  0  0 
 26 24  1  0  0  0  0 
 27 26  1  0  0  0  0 
 27 15  1  0  0  0  0 
 27  3  1  0  0  0  0 
 28 27  1  0  0  0  0 
 29 28  2  0  0  0  0 
 30 28  1  0  0  0  0 
 31 30  1  0  0  0  0 
 32 31  1  0  0  0  0 
 33 31  1  0  0  0  0 
 34 31  1  0  0  0  0 
M  END
> <id>
11162081

> <origin>
MetFrag

> <smiles>
[H]OC2(C(=O)OC([H])([H])[H])(C([H])([H])OC1(OC([H])([H])[H])(C([H])([H])C(=O)OC12(C(=O)OC([H])([H])[H])))

> <name>
dimethyl (3S,3aS,6aS)-3-hydroxy-6a-methoxy-5-oxo-2,6-dihydrofuro[3,2-b]furan-3,3a-dicarboxylate

> <peaksExplained>
1

> <tiedRank>
53

> <URL>
http://pubchem.ncbi.nlm.nih.gov/summary/summary.cgi?cid=11162081

> <newscore>
0.4932941839905951

> <clusterRank>
53

> <origscore>
0.0

$$$$
